@<TRIPOS>MOLECULE
AEL
   53    58     1     0     0
SMALL
No Charge or Current Charge


@<TRIPOS>ATOM
      1 C11         -2.2210     0.5310    -0.6350 c          1 AEL       0.592100
      2 C13         -2.4950    -1.8400     0.0110 c          1 AEL       0.592100
      3 O15         -1.4990     1.4550    -0.9900 o          1 AEL      -0.522500
      4 C18          2.0680    -0.8030     0.4030 cc         1 AEL       0.435800
      5 C20          4.1860    -0.1770     0.0370 ca         1 AEL      -0.074200
      6 C1          -5.9110    -0.1170     0.1460 ca         1 AEL      -0.062000
      7 C2          -6.4670     1.1540    -0.0830 ca         1 AEL      -0.054500
      8 C3          -5.6440     2.2150    -0.4890 ca         1 AEL      -0.130500
      9 C4          -4.2670     2.0100    -0.6670 ca         1 AEL      -0.015000
     10 C5          -3.6960     0.7380    -0.4400 ca         1 AEL      -0.165600
     11 C6          -4.5230    -0.3270    -0.0330 ca         1 AEL       0.022000
     12 C7          -3.9680    -1.6000     0.1960 ca         1 AEL      -0.165600
     13 C8          -4.8090    -2.6600     0.6030 ca         1 AEL      -0.015000
     14 C9          -6.1860    -2.4480     0.7790 ca         1 AEL      -0.130500
     15 C10         -6.7380    -1.1790     0.5520 ca         1 AEL      -0.054500
     16 N12         -1.7040    -0.7500    -0.3860 n          1 AEL      -0.376400
     17 O14         -2.0080    -2.9460     0.2090 o          1 AEL      -0.522500
     18 C16         -0.2480    -0.9760    -0.6050 c3         1 AEL       0.094000
     19 C17          0.5890    -0.7230     0.6640 c3         1 AEL      -0.111700
     20 N19          2.9290     0.2870     0.2510 na         1 AEL      -0.097400
     21 C21          4.0780    -1.5400     0.0580 ca         1 AEL       0.076400
     22 N22          2.7610    -1.9570     0.2850 nd         1 AEL      -0.568100
     23 C23          5.3960     0.4940    -0.1740 ca         1 AEL      -0.108000
     24 C24          6.5470    -0.2960    -0.3700 ca         1 AEL      -0.094000
     25 C25          6.4610    -1.7120    -0.3540 ca         1 AEL      -0.097300
     26 C26          5.2110    -2.3430    -0.1360 ca         1 AEL      -0.051000
     27 C27          2.5390     1.6210     0.3210 ca         1 AEL       0.041800
     28 C28          2.9090     2.4210     1.4130 ca         1 AEL      -0.165500
     29 C29          2.4910     3.7600     1.4530 ca         1 AEL       0.346400
     30 N30          1.7390     4.3260     0.4800 nb         1 AEL      -0.666000
     31 C31          1.3870     3.5530    -0.5740 ca         1 AEL       0.346400
     32 C32          1.7670     2.2080    -0.6950 ca         1 AEL      -0.165500
     33 C33          7.7110    -2.5530    -0.5640 c3         1 AEL      -0.042800
     34 H1          -7.5340     1.3210     0.0530 ha         1 AEL       0.120000
     35 H2          -6.0740     3.1990    -0.6660 ha         1 AEL       0.125500
     36 H3          -3.6450     2.8470    -0.9830 ha         1 AEL       0.141000
     37 H4          -4.4010    -3.6520     0.7850 ha         1 AEL       0.141000
     38 H5          -6.8260    -3.2700     1.0930 ha         1 AEL       0.125500
     39 H6          -7.8060    -1.0240     0.6900 ha         1 AEL       0.120000
     40 H7          -0.0720    -2.0030    -0.9530 h1         1 AEL       0.080200
     41 H8           0.1100    -0.3250    -1.4130 h1         1 AEL       0.080200
     42 H9           0.3150    -1.4600     1.4270 hc         1 AEL       0.074700
     43 H10          0.3330     0.2590     1.0780 hc         1 AEL       0.074700
     44 H11          5.4480     1.5800    -0.1860 ha         1 AEL       0.122000
     45 H12          7.5070     0.1890    -0.5350 ha         1 AEL       0.112000
     46 H13          5.1250    -3.4260    -0.1170 ha         1 AEL       0.129000
     47 H14          3.5090     2.0170     2.2230 ha         1 AEL       0.144000
     48 H15          2.7640     4.4010     2.2910 h4         1 AEL       0.026100
     49 H16          0.7840     4.0310    -1.3470 h4         1 AEL       0.026100
     50 H17          1.4620     1.6400    -1.5680 ha         1 AEL       0.144000
     51 H18          8.2240    -2.7330     0.3880 hc         1 AEL       0.041033
     52 H19          7.4700    -3.5270    -1.0050 hc         1 AEL       0.041033
     53 H20          8.4190    -2.0540    -1.2370 hc         1 AEL       0.041033
@<TRIPOS>BOND
     1     1     3 2   
     2     1    10 1   
     3     1    16 1   
     4     2    12 1   
     5     2    16 1   
     6     2    17 2   
     7     4    19 1   
     8     4    20 1   
     9     4    22 2   
    10     5    20 1   
    11     5    21 ar  
    12     5    23 ar  
    13     6     7 ar  
    14     6    11 ar  
    15     6    15 ar  
    16     7     8 ar  
    17     7    34 1   
    18     8     9 ar  
    19     8    35 1   
    20     9    10 ar  
    21     9    36 1   
    22    10    11 ar  
    23    11    12 ar  
    24    12    13 ar  
    25    13    14 ar  
    26    13    37 1   
    27    14    15 ar  
    28    14    38 1   
    29    15    39 1   
    30    16    18 1   
    31    18    19 1   
    32    18    40 1   
    33    18    41 1   
    34    19    42 1   
    35    19    43 1   
    36    20    27 1   
    37    21    22 1   
    38    21    26 ar  
    39    23    24 ar  
    40    23    44 1   
    41    24    25 ar  
    42    24    45 1   
    43    25    26 ar  
    44    25    33 1   
    45    26    46 1   
    46    27    28 ar  
    47    27    32 ar  
    48    28    29 ar  
    49    28    47 1   
    50    29    30 ar  
    51    29    48 1   
    52    30    31 ar  
    53    31    32 ar  
    54    31    49 1   
    55    32    50 1   
    56    33    51 1   
    57    33    52 1   
    58    33    53 1   
@<TRIPOS>SUBSTRUCTURE
     1 AEL         1 TEMP              0 ****  ****    0 ROOT
