@<TRIPOS>MOLECULE
AEL
   53    58     1     0     0
SMALL
bcc


@<TRIPOS>ATOM
      1 C11         -2.2600     0.5270    -0.7620 c          1 AEL       0.734600
      2 C13         -2.4030    -1.7810     0.0890 c          1 AEL       0.734600
      3 O15         -1.5600     1.4360    -1.1560 o          1 AEL      -0.598000
      4 C18          1.9880    -0.6450     0.3770 cc         1 AEL       0.435800
      5 C20          4.1160    -0.1260     0.0740 ca         1 AEL      -0.074200
      6 C1          -5.8770    -0.2670     0.0460 ca         1 AEL      -0.062000
      7 C2          -6.4790     0.9580    -0.3140 ca         1 AEL      -0.072500
      8 C3          -5.7220     1.9920    -0.8000 ca         1 AEL      -0.148500
      9 C4          -4.3330     1.8480    -0.9430 ca         1 AEL      -0.033000
     10 C5          -3.7170     0.6660    -0.6030 ca         1 AEL      -0.165600
     11 C6          -4.4780    -0.4090    -0.1050 ca         1 AEL       0.022000
     12 C7          -3.8570    -1.6230     0.2510 ca         1 AEL      -0.165600
     13 C8          -4.6090    -2.6620     0.7470 ca         1 AEL      -0.033000
     14 C9          -5.9980    -2.5270     0.8970 ca         1 AEL      -0.148500
     15 C10         -6.6200    -1.3550     0.5530 ca         1 AEL      -0.072500
     16 N12         -1.7040    -0.7070    -0.4460 n          1 AEL      -0.510400
     17 O14         -1.8200    -2.7990     0.3980 o          1 AEL      -0.598000
     18 C16         -0.2660    -0.8670    -0.6360 c3         1 AEL       0.094000
     19 C17          0.5260    -0.4990     0.6230 c3         1 AEL      -0.111700
     20 N19          2.8630     0.4130     0.2970 na         1 AEL      -0.097400
     21 C21          3.9090    -1.5080     0.0150 ca         1 AEL       0.076400
     22 N22          2.5790    -1.7920     0.2130 nd         1 AEL      -0.568100
     23 C23          5.3680     0.4430    -0.1180 ca         1 AEL      -0.126000
     24 C24          6.4170    -0.4280    -0.3550 ca         1 AEL      -0.112000
     25 C25          6.2440    -1.8250    -0.4070 ca         1 AEL      -0.097300
     26 C26          4.9810    -2.3660    -0.2260 ca         1 AEL      -0.069000
     27 C27          2.5820     1.7830     0.4560 ca         1 AEL       0.041800
     28 C28          3.2730     2.5300     1.4000 ca         1 AEL      -0.248800
     29 C29          2.9730     3.8780     1.5130 ca         1 AEL       0.411700
     30 N30          2.0530     4.4910     0.7780 nb         1 AEL      -0.666000
     31 C31          1.3980     3.7640    -0.1180 ca         1 AEL       0.411700
     32 C32          1.6280     2.4130    -0.3300 ca         1 AEL      -0.248800
     33 C33          7.4330    -2.7160    -0.6350 c3         1 AEL      -0.042800
     34 H1          -7.5500     1.0700    -0.2020 ha         1 AEL       0.138000
     35 H2          -6.1900     2.9270    -1.0760 ha         1 AEL       0.143500
     36 H3          -3.7500     2.6750    -1.3250 ha         1 AEL       0.159000
     37 H4          -4.1320    -3.5920     1.0240 ha         1 AEL       0.159000
     38 H5          -6.5730    -3.3560     1.2850 ha         1 AEL       0.143500
     39 H6          -7.6920    -1.2510     0.6700 ha         1 AEL       0.138000
     40 H7          -0.0650    -1.8990    -0.9080 h1         1 AEL       0.080200
     41 H8           0.0370    -0.2470    -1.4770 h1         1 AEL       0.080200
     42 H9           0.2520    -1.1710     1.4370 hc         1 AEL       0.074700
     43 H10          0.2810     0.5120     0.9460 hc         1 AEL       0.074700
     44 H11          5.5280     1.5120    -0.0910 ha         1 AEL       0.140000
     45 H12          7.4070    -0.0190    -0.5110 ha         1 AEL       0.130000
     46 H13          4.8240    -3.4370    -0.2750 ha         1 AEL       0.147000
     47 H14          4.0180     2.0790     2.0420 ha         1 AEL       0.162000
     48 H15          3.4980     4.4830     2.2430 h4         1 AEL       0.026100
     49 H16          0.6520     4.2790    -0.7120 h4         1 AEL       0.026100
     50 H17          1.0760     1.8810    -1.0920 ha         1 AEL       0.162000
     51 H18          7.9420    -2.9390     0.3050 hc         1 AEL       0.041033
     52 H19          7.1400    -3.6670    -1.0800 hc         1 AEL       0.041033
     53 H20          8.1640    -2.2480    -1.2940 hc         1 AEL       0.041033
@<TRIPOS>BOND
     1     1     3 2   
     2     1    10 1   
     3     1    16 1   
     4     2    12 1   
     5     2    16 1   
     6     2    17 2   
     7     4    19 1   
     8     4    20 1   
     9     4    22 2   
    10     5    20 1   
    11     5    21 ar  
    12     5    23 ar  
    13     6     7 ar  
    14     6    11 ar  
    15     6    15 ar  
    16     7     8 ar  
    17     7    34 1   
    18     8     9 ar  
    19     8    35 1   
    20     9    10 ar  
    21     9    36 1   
    22    10    11 ar  
    23    11    12 ar  
    24    12    13 ar  
    25    13    14 ar  
    26    13    37 1   
    27    14    15 ar  
    28    14    38 1   
    29    15    39 1   
    30    16    18 1   
    31    18    19 1   
    32    18    40 1   
    33    18    41 1   
    34    19    42 1   
    35    19    43 1   
    36    20    27 1   
    37    21    22 1   
    38    21    26 ar  
    39    23    24 ar  
    40    23    44 1   
    41    24    25 ar  
    42    24    45 1   
    43    25    26 ar  
    44    25    33 1   
    45    26    46 1   
    46    27    28 ar  
    47    27    32 ar  
    48    28    29 ar  
    49    28    47 1   
    50    29    30 ar  
    51    29    48 1   
    52    30    31 ar  
    53    31    32 ar  
    54    31    49 1   
    55    32    50 1   
    56    33    51 1   
    57    33    52 1   
    58    33    53 1   
@<TRIPOS>SUBSTRUCTURE
     1 AEL         1 TEMP              0 ****  ****    0 ROOT
