@<TRIPOS>MOLECULE
AEM
   10     9     1     0     0
SMALL
No Charge or Current Charge


@<TRIPOS>ATOM
      1 C1           0.0430    -0.3950    -0.7900 c2         1 AEM       0.421200
      2 N1          -0.6020     0.4550    -1.5150 n2         1 AEM      -0.753100
      3 C2           0.5820    -0.0710     0.6120 c3         1 AEM       0.088500
      4 N2          -0.4630     0.2340     1.6440 n8         1 AEM      -1.002200
      5 HA           0.2260    -1.3980    -1.1690 h4         1 AEM      -0.027200
      6 H1          -0.8600     0.0050    -2.4060 hn         1 AEM       0.376400
      7 H2C1         1.2560     0.7950     0.5350 h1         1 AEM       0.049200
      8 H2C2         1.1820    -0.9210     0.9650 h1         1 AEM       0.049200
      9 H2N1        -0.0060     0.5510     2.5100 hn         1 AEM       0.400000
     10 H2N2        -1.0000     1.0560     1.3370 hn         1 AEM       0.400000
@<TRIPOS>BOND
     1     1     2 2   
     2     1     3 1   
     3     1     5 1   
     4     2     6 1   
     5     3     4 1   
     6     3     7 1   
     7     3     8 1   
     8     4     9 1   
     9     4    10 1   
@<TRIPOS>SUBSTRUCTURE
     1 AEM         1 TEMP              0 ****  ****    0 ROOT
