@<TRIPOS>MOLECULE
AEM
   10     9     1     0     0
SMALL
abcg2


@<TRIPOS>ATOM
      1 C1          -0.0850    -0.3180    -0.7280 c2         1 AEM       0.421200
      2 N1          -0.0050     0.3470    -1.8000 n2         1 AEM      -0.753100
      3 C2           0.5530     0.1430     0.5450 c3         1 AEM       0.088500
      4 N2          -0.3860     0.0150     1.6470 n8         1 AEM      -1.002200
      5 HA          -0.6190    -1.2700    -0.6470 h4         1 AEM      -0.027200
      6 H1          -0.4880    -0.1350    -2.5530 hn         1 AEM       0.376400
      7 H2C1         0.9660     1.1480     0.3950 h1         1 AEM       0.049200
      8 H2C2         1.4010    -0.5200     0.7460 h1         1 AEM       0.049200
      9 H2N1         0.0990     0.1480     2.5250 hn         1 AEM       0.400000
     10 H2N2        -1.0770     0.7520     1.5930 hn         1 AEM       0.400000
@<TRIPOS>BOND
     1     1     2 2   
     2     1     3 1   
     3     1     5 1   
     4     2     6 1   
     5     3     4 1   
     6     3     7 1   
     7     3     8 1   
     8     4     9 1   
     9     4    10 1   
@<TRIPOS>SUBSTRUCTURE
     1 AEM         1 TEMP              0 ****  ****    0 ROOT
