@<TRIPOS>MOLECULE
AEN
   36    37     1     0     0
SMALL
No Charge or Current Charge


@<TRIPOS>ATOM
      1 C1           0.5780     0.0650    -2.9500 ca         1 AEN      -0.206500
      2 C2           1.9760    -0.1240    -2.8630 ca         1 AEN      -0.036000
      3 C3           2.6030    -0.3000    -1.6250 ca         1 AEN      -0.135000
      4 C4           1.8530    -0.2910    -0.4460 ca         1 AEN      -0.100000
      5 C5          -0.3130    -0.0970     0.7170 ca         1 AEN       0.285000
      6 C6          -1.7050     0.0890     0.6550 ca         1 AEN      -0.201000
      7 C7          -2.3430     0.2660    -0.5760 ca         1 AEN      -0.102000
      8 C8          -1.5990     0.2600    -1.7620 ca         1 AEN      -0.094000
      9 C9          -0.1940     0.0750    -1.7460 ca         1 AEN       0.069000
     10 C10          0.4500    -0.1050    -0.4860 ca         1 AEN      -0.082000
     11 C11         -1.0260     0.3610     7.7960 c3         1 AEN      -0.178100
     12 C12         -0.4120     0.6420     6.4300 c          1 AEN       0.598100
     13 O2          -0.3520     1.7660     5.9540 o          1 AEN      -0.612100
     14 N3           0.0730    -0.4680     5.7760 ns         1 AEN      -0.506900
     15 C13          0.6860    -0.4550     4.4400 c3         1 AEN       0.091000
     16 C14         -0.3390    -0.2170     3.3020 c3         1 AEN       0.187800
     17 N6           0.2980    -0.2730     1.9700 nu         1 AEN      -0.942200
     18 S           -0.1830     0.2930    -4.6410 s6         1 AEN       1.254100
     19 O1S          0.9730     0.2110    -5.5460 o          1 AEN      -0.690867
     20 O2S         -1.1220    -0.8370    -4.7010 o          1 AEN      -0.690867
     21 O3S         -0.8010     1.6220    -4.5150 o          1 AEN      -0.690867
     22 H2           2.5960    -0.1370    -3.7560 ha         1 AEN       0.139000
     23 H3           3.6800    -0.4440    -1.5810 ha         1 AEN       0.094000
     24 H4           2.3830    -0.4320     0.4910 ha         1 AEN       0.089000
     25 H6          -2.3070     0.0980     1.5580 ha         1 AEN       0.090000
     26 H7          -3.4210     0.4100    -0.6130 ha         1 AEN       0.097000
     27 H8          -2.1470     0.4010    -2.6870 ha         1 AEN       0.152000
     28 H1'1        -0.2910    -0.1630     8.4170 hc         1 AEN       0.056367
     29 H1'2        -1.3990     1.2670     8.2870 hc         1 AEN       0.056367
     30 H1'3        -1.8150    -0.3920     7.6850 hc         1 AEN       0.056367
     31 HN'3        -0.0210    -1.3560     6.2570 hn         1 AEN       0.312500
     32 H4'1         1.4530     0.3300     4.4110 h1         1 AEN       0.057200
     33 H4'2         1.1830    -1.4200     4.2810 h1         1 AEN       0.057200
     34 H5'1        -1.1220    -0.9840     3.3690 h1         1 AEN       0.034700
     35 H5'2        -0.8140     0.7630     3.4440 h1         1 AEN       0.034700
     36 HN'6         1.3080    -0.4040     1.9480 hn         1 AEN       0.458000
@<TRIPOS>BOND
     1     1     2 ar  
     2     1     9 ar  
     3     1    18 1   
     4     2     3 ar  
     5     2    22 1   
     6     3     4 ar  
     7     3    23 1   
     8     4    10 ar  
     9     4    24 1   
    10     5     6 ar  
    11     5    10 ar  
    12     5    17 1   
    13     6     7 ar  
    14     6    25 1   
    15     7     8 ar  
    16     7    26 1   
    17     8     9 ar  
    18     8    27 1   
    19     9    10 ar  
    20    11    12 1   
    21    11    28 1   
    22    11    29 1   
    23    11    30 1   
    24    12    13 2   
    25    12    14 1   
    26    14    15 1   
    27    14    31 1   
    28    15    16 1   
    29    15    32 1   
    30    15    33 1   
    31    16    17 1   
    32    16    34 1   
    33    16    35 1   
    34    17    36 1   
    35    18    19 1   
    36    18    20 1   
    37    18    21 1   
@<TRIPOS>SUBSTRUCTURE
     1 AEN         1 TEMP              0 ****  ****    0 ROOT
