@<TRIPOS>MOLECULE
AEN
   36    37     1     0     0
SMALL
abcg2


@<TRIPOS>ATOM
      1 C1           0.6220    -0.0430    -2.9220 ca         1 AEN      -0.206500
      2 C2           1.9860    -0.0140    -2.8090 ca         1 AEN      -0.036000
      3 C3           2.5970     0.0810    -1.5480 ca         1 AEN      -0.135000
      4 C4           1.8310     0.1170    -0.4170 ca         1 AEN      -0.100000
      5 C5          -0.3790     0.0680     0.7070 ca         1 AEN       0.285000
      6 C6          -1.7530     0.0930     0.5890 ca         1 AEN      -0.201000
      7 C7          -2.3590     0.0850    -0.6770 ca         1 AEN      -0.102000
      8 C8          -1.6270     0.0290    -1.8290 ca         1 AEN      -0.094000
      9 C9          -0.2110     0.0100    -1.7650 ca         1 AEN       0.069000
     10 C10          0.4200     0.0590    -0.4880 ca         1 AEN      -0.082000
     11 C11         -0.7380    -0.0500     7.9470 c3         1 AEN      -0.178100
     12 C12          0.2120     0.0730     6.7820 c          1 AEN       0.598100
     13 O2           1.4140     0.2510     6.9380 o          1 AEN      -0.612100
     14 N3          -0.3460    -0.0250     5.5660 ns         1 AEN      -0.506900
     15 C13          0.4220     0.0700     4.3450 c3         1 AEN       0.091000
     16 C14         -0.5140    -0.0000     3.1500 c3         1 AEN       0.187800
     17 N6           0.2530     0.0860     1.9320 nu         1 AEN      -0.942200
     18 S           -0.0830    -0.1520    -4.5740 s6         1 AEN       1.254100
     19 O1S          1.0650    -0.2280    -5.4930 o          1 AEN      -0.690867
     20 O2S         -0.8990    -1.3790    -4.5710 o          1 AEN      -0.690867
     21 O3S         -0.8760     1.0780    -4.7480 o          1 AEN      -0.690867
     22 H2           2.6060    -0.0530    -3.6930 ha         1 AEN       0.139000
     23 H3           3.6750     0.1290    -1.4780 ha         1 AEN       0.094000
     24 H4           2.3290     0.2140     0.5380 ha         1 AEN       0.089000
     25 H6          -2.3870     0.1020     1.4650 ha         1 AEN       0.090000
     26 H7          -3.4400     0.1040    -0.7330 ha         1 AEN       0.097000
     27 H8          -2.1410     0.0080    -2.7760 ha         1 AEN       0.152000
     28 H1'1        -0.4590    -0.9120     8.5530 hc         1 AEN       0.056367
     29 H1'2        -0.6520     0.8320     8.5800 hc         1 AEN       0.056367
     30 H1'3        -1.7790    -0.1620     7.6500 hc         1 AEN       0.056367
     31 HN'3        -1.3380    -0.1830     5.4970 hn         1 AEN       0.312500
     32 H4'1         0.9800     1.0090     4.3190 h1         1 AEN       0.057200
     33 H4'2         1.1530    -0.7430     4.2930 h1         1 AEN       0.057200
     34 H5'1        -1.1110    -0.9220     3.2010 h1         1 AEN       0.034700
     35 H5'2        -1.2140     0.8380     3.1950 h1         1 AEN       0.034700
     36 HN'6         1.1080    -0.4480     1.9660 hn         1 AEN       0.458000
@<TRIPOS>BOND
     1     1     2 ar  
     2     1     9 ar  
     3     1    18 1   
     4     2     3 ar  
     5     2    22 1   
     6     3     4 ar  
     7     3    23 1   
     8     4    10 ar  
     9     4    24 1   
    10     5     6 ar  
    11     5    10 ar  
    12     5    17 1   
    13     6     7 ar  
    14     6    25 1   
    15     7     8 ar  
    16     7    26 1   
    17     8     9 ar  
    18     8    27 1   
    19     9    10 ar  
    20    11    12 1   
    21    11    28 1   
    22    11    29 1   
    23    11    30 1   
    24    12    13 2   
    25    12    14 1   
    26    14    15 1   
    27    14    31 1   
    28    15    16 1   
    29    15    32 1   
    30    15    33 1   
    31    16    17 1   
    32    16    34 1   
    33    16    35 1   
    34    17    36 1   
    35    18    19 1   
    36    18    20 1   
    37    18    21 1   
@<TRIPOS>SUBSTRUCTURE
     1 AEN         1 TEMP              0 ****  ****    0 ROOT
