@<TRIPOS>MOLECULE
AEO
   45    49     1     0     0
SMALL
bcc


@<TRIPOS>ATOM
      1 C1           5.3660    -0.6470     0.0490 ca         1 AEO      -0.063000
      2 C2           6.0170    -0.9180    -1.1750 ca         1 AEO      -0.071500
      3 C3           5.3960    -0.6580    -2.3680 ca         1 AEO      -0.149000
      4 C4           4.0990    -0.1200    -2.3900 ca         1 AEO      -0.032000
      5 C5           3.4400     0.1570    -1.2150 ca         1 AEO      -0.166600
      6 C6           4.0620    -0.1010     0.0210 ca         1 AEO       0.022000
      7 C7           3.3940     0.1720     1.2310 ca         1 AEO      -0.166600
      8 C8           4.0090    -0.0920     2.4330 ca         1 AEO      -0.032000
      9 C9           5.3040    -0.6310     2.4660 ca         1 AEO      -0.149000
     10 C10          5.9700    -0.9050     1.2990 ca         1 AEO      -0.071500
     11 C11          2.0800     0.7200    -1.2520 c          1 AEO       0.733600
     12 N12          1.4840     1.0180    -0.0330 n          1 AEO      -0.511400
     13 C13          2.0350     0.7360     1.2100 c          1 AEO       0.733600
     14 O14          1.4060     0.9560     2.2250 o          1 AEO      -0.596500
     15 O15          1.4890     0.9240    -2.2920 o          1 AEO      -0.596500
     16 C16          0.1520     1.6140    -0.0620 c3         1 AEO       0.099000
     17 C17         -0.9330     0.5430    -0.0690 c3         1 AEO      -0.111700
     18 C18         -2.2900     1.1410    -0.1150 cc         1 AEO       0.374900
     19 N19         -3.4480     0.4050    -0.0870 n          1 AEO      -0.241500
     20 C20         -4.5070     1.2700    -0.1310 cs         1 AEO       0.519400
     21 N21         -3.9080     2.4640    -0.1820 ns         1 AEO      -0.230900
     22 N22         -2.5600     2.4010    -0.1730 n2         1 AEO      -0.492300
     23 C23         -3.5440    -1.0100    -0.0200 ca         1 AEO       0.035600
     24 S24         -6.1340     0.9140    -0.1310 s          1 AEO      -0.595400
     25 C25         -3.2690    -1.7650    -1.1500 ca         1 AEO      -0.101500
     26 C26         -3.3420    -3.1490    -1.0750 ca         1 AEO      -0.122000
     27 C27         -3.6960    -3.7630     0.1180 ca         1 AEO      -0.112000
     28 C28         -3.9760    -2.9950     1.2420 ca         1 AEO      -0.122000
     29 C29         -3.8990    -1.6120     1.1770 ca         1 AEO      -0.101500
     30 H1           7.0160    -1.3370    -1.1580 ha         1 AEO       0.139000
     31 H2           5.9000    -0.8660    -3.3020 ha         1 AEO       0.144000
     32 H3           3.6210     0.0780    -3.3400 ha         1 AEO       0.159000
     33 H4           3.4940     0.1160     3.3610 ha         1 AEO       0.159000
     34 H5           5.7730    -0.8310     3.4200 ha         1 AEO       0.144000
     35 H6           6.9680    -1.3240     1.3250 ha         1 AEO       0.139000
     36 H7           0.0460     2.2620     0.8040 h1         1 AEO       0.085200
     37 H8           0.0770     2.2400    -0.9470 h1         1 AEO       0.085200
     38 H9          -0.8050    -0.1190    -0.9280 hc         1 AEO       0.078700
     39 H10         -0.8560    -0.0880     0.8200 hc         1 AEO       0.078700
     40 H11         -4.3760     3.3560    -0.2250 hn         1 AEO       0.392500
     41 H12         -3.0020    -1.2780    -2.0790 ha         1 AEO       0.148500
     42 H13         -3.1250    -3.7450    -1.9510 ha         1 AEO       0.140000
     43 H14         -3.7530    -4.8420     0.1740 ha         1 AEO       0.136000
     44 H15         -4.2530    -3.4730     2.1720 ha         1 AEO       0.140000
     45 H16         -4.1090    -1.0060     2.0480 ha         1 AEO       0.148500
@<TRIPOS>BOND
     1     1     2 ar  
     2     1     6 ar  
     3     1    10 ar  
     4     2     3 ar  
     5     2    30 1   
     6     3     4 ar  
     7     3    31 1   
     8     4     5 ar  
     9     4    32 1   
    10     5     6 ar  
    11     5    11 1   
    12     6     7 ar  
    13     7     8 ar  
    14     7    13 1   
    15     8     9 ar  
    16     8    33 1   
    17     9    10 ar  
    18     9    34 1   
    19    10    35 1   
    20    11    12 1   
    21    11    15 2   
    22    12    13 1   
    23    12    16 1   
    24    13    14 2   
    25    16    17 1   
    26    16    36 1   
    27    16    37 1   
    28    17    18 1   
    29    17    38 1   
    30    17    39 1   
    31    18    19 1   
    32    18    22 2   
    33    19    20 1   
    34    19    23 1   
    35    20    21 1   
    36    20    24 2   
    37    21    22 1   
    38    21    40 1   
    39    23    25 ar  
    40    23    29 ar  
    41    25    26 ar  
    42    25    41 1   
    43    26    27 ar  
    44    26    42 1   
    45    27    28 ar  
    46    27    43 1   
    47    28    29 ar  
    48    28    44 1   
    49    29    45 1   
@<TRIPOS>SUBSTRUCTURE
     1 AEO         1 TEMP              0 ****  ****    0 ROOT
