@<TRIPOS>MOLECULE
AEO
   45    49     1     0     0
SMALL
No Charge or Current Charge


@<TRIPOS>ATOM
      1 C1           5.4360    -0.6470    -0.0190 ca         1 AEO      -0.063000
      2 C2           6.2380    -0.6330    -1.1740 ca         1 AEO      -0.053500
      3 C3           5.7400    -0.0830    -2.3650 ca         1 AEO      -0.131000
      4 C4           4.4430     0.4520    -2.4050 ca         1 AEO      -0.014000
      5 C5           3.6270     0.4430    -1.2520 ca         1 AEO      -0.166600
      6 C6           4.1280    -0.1090    -0.0570 ca         1 AEO       0.022000
      7 C7           3.3260    -0.1230     1.1000 ca         1 AEO      -0.166600
      8 C8           3.8410    -0.6800     2.2930 ca         1 AEO      -0.014000
      9 C9           5.1390    -1.2140     2.3270 ca         1 AEO      -0.131000
     10 C10          5.9370    -1.1990     1.1730 ca         1 AEO      -0.053500
     11 C11          2.2400     1.0190    -1.3090 c          1 AEO       0.591100
     12 N12          1.4700     0.9760    -0.1360 n          1 AEO      -0.377400
     13 C13          1.9350     0.4450     1.0770 c          1 AEO       0.591100
     14 O14          1.2340     0.4330     2.0810 o          1 AEO      -0.521000
     15 O15          1.8010     1.4990    -2.3470 o          1 AEO      -0.521000
     16 C16          0.1030     1.5740    -0.1670 c3         1 AEO       0.099000
     17 C17         -0.9830     0.5470    -0.5530 c3         1 AEO      -0.111700
     18 C18         -2.3870     1.1030    -0.5230 cc         1 AEO       0.374900
     19 N19         -3.5350     0.4360    -0.0840 n          1 AEO      -0.174500
     20 C20         -4.5980     1.3100    -0.0820 cs         1 AEO       0.385400
     21 N21         -4.0150     2.4600    -0.5210 ns         1 AEO      -0.277400
     22 N22         -2.6720     2.3440    -0.7820 n2         1 AEO      -0.492300
     23 C23         -3.6530    -0.9860     0.1350 ca         1 AEO       0.035600
     24 S24         -6.2350     1.0730     0.1930 s          1 AEO      -0.595400
     25 C25         -2.9270    -1.9170    -0.6420 ca         1 AEO      -0.083500
     26 C26         -2.9740    -3.2910    -0.3470 ca         1 AEO      -0.104000
     27 C27         -3.7220    -3.7520     0.7470 ca         1 AEO      -0.094000
     28 C28         -4.4150    -2.8350     1.5520 ca         1 AEO      -0.104000
     29 C29         -4.3690    -1.4610     1.2550 ca         1 AEO      -0.083500
     30 H1           7.2440    -1.0460    -1.1510 ha         1 AEO       0.121000
     31 H2           6.3610    -0.0710    -3.2580 ha         1 AEO       0.126000
     32 H3           4.0760     0.8750    -3.3390 ha         1 AEO       0.141000
     33 H4           3.2380    -0.7010     3.1990 ha         1 AEO       0.141000
     34 H5           5.5270    -1.6400     3.2490 ha         1 AEO       0.126000
     35 H6           6.9420    -1.6140     1.2080 ha         1 AEO       0.121000
     36 H7          -0.1390     2.0030     0.8150 h1         1 AEO       0.085200
     37 H8           0.0790     2.4130    -0.8750 h1         1 AEO       0.085200
     38 H9          -0.7660     0.1640    -1.5560 hc         1 AEO       0.078700
     39 H10         -0.9080    -0.2980     0.1410 hc         1 AEO       0.078700
     40 H11         -4.5870     3.2950    -0.6830 hn         1 AEO       0.506000
     41 H12         -2.3560    -1.5890    -1.5050 ha         1 AEO       0.130500
     42 H13         -2.4290    -3.9990    -0.9690 ha         1 AEO       0.122000
     43 H14         -3.7560    -4.8150     0.9770 ha         1 AEO       0.118000
     44 H15         -4.9800    -3.1860     2.4130 ha         1 AEO       0.122000
     45 H16         -4.8840    -0.7640     1.9120 ha         1 AEO       0.130500
@<TRIPOS>BOND
     1     1     2 ar  
     2     1     6 ar  
     3     1    10 ar  
     4     2     3 ar  
     5     2    30 1   
     6     3     4 ar  
     7     3    31 1   
     8     4     5 ar  
     9     4    32 1   
    10     5     6 ar  
    11     5    11 1   
    12     6     7 ar  
    13     7     8 ar  
    14     7    13 1   
    15     8     9 ar  
    16     8    33 1   
    17     9    10 ar  
    18     9    34 1   
    19    10    35 1   
    20    11    12 1   
    21    11    15 2   
    22    12    13 1   
    23    12    16 1   
    24    13    14 2   
    25    16    17 1   
    26    16    36 1   
    27    16    37 1   
    28    17    18 1   
    29    17    38 1   
    30    17    39 1   
    31    18    19 1   
    32    18    22 2   
    33    19    20 1   
    34    19    23 1   
    35    20    21 1   
    36    20    24 2   
    37    21    22 1   
    38    21    40 1   
    39    23    25 ar  
    40    23    29 ar  
    41    25    26 ar  
    42    25    41 1   
    43    26    27 ar  
    44    26    42 1   
    45    27    28 ar  
    46    27    43 1   
    47    28    29 ar  
    48    28    44 1   
    49    29    45 1   
@<TRIPOS>SUBSTRUCTURE
     1 AEO         1 TEMP              0 ****  ****    0 ROOT
