@<TRIPOS>MOLECULE
AEP
   26    25     1     0     0
SMALL
abcg2


@<TRIPOS>ATOM
      1 N           -1.0000     4.9650     2.4430 n8         1 AEP      -0.969200
      2 C1          -0.7000     3.5780     2.0870 c3         1 AEP      -0.179500
      3 C2          -0.4080     3.3700     0.6060 c3         1 AEP      -0.201400
      4 C3          -1.5300     3.7610    -0.3750 c          1 AEP       0.706000
      5 O1          -2.6660     3.9950     0.0900 o          1 AEP      -0.783500
      6 O2          -1.2140     3.7920    -1.5830 o          1 AEP      -0.783500
      7 P            0.7090     3.0520     3.1710 p5         1 AEP       1.425000
      8 C4           1.1010     1.3390     2.6300 c3         1 AEP      -0.407400
      9 C5           0.4240    -1.0020     2.0570 c3         1 AEP      -0.050100
     10 C6          -0.0450     0.3290     2.6490 c3         1 AEP      -0.154700
     11 C7          -0.5990     0.0860     4.0650 c          1 AEP       0.739000
     12 O3           0.2110    -0.3470     4.9110 o          1 AEP      -0.763500
     13 O4          -1.8190     0.2790     4.2500 o          1 AEP      -0.763500
     14 O1P          0.2400     3.0290     4.6140 o          1 AEP      -0.855000
     15 O2P          1.9020     3.9330     2.8260 o          1 AEP      -0.855000
     16 HN1         -1.7440     5.2850     1.8330 hn         1 AEP       0.362500
     17 HN2         -0.1900     5.5320     2.2190 hn         1 AEP       0.362500
     18 H1          -1.5650     2.9690     2.3720 h1         1 AEP       0.087700
     19 H21          0.5020     3.9170     0.3350 hc         1 AEP       0.019200
     20 H22         -0.1700     2.3170     0.4140 hc         1 AEP       0.019200
     21 H41          1.9030     0.9820     3.2860 hc         1 AEP       0.021200
     22 H42          1.5340     1.3860     1.6250 hc         1 AEP       0.021200
     23 H51          1.2620    -1.4010     2.6300 hc         1 AEP      -0.012967
     24 H52          0.7560    -0.8790     1.0230 hc         1 AEP      -0.012967
     25 H53         -0.3710    -1.7510     2.0590 hc         1 AEP      -0.012967
     26 H6          -0.8610     0.7040     2.0230 hc         1 AEP       0.039700
@<TRIPOS>BOND
     1     1     2 1   
     2     1    16 1   
     3     1    17 1   
     4     2     3 1   
     5     2     7 1   
     6     2    18 1   
     7     3     4 1   
     8     3    19 1   
     9     3    20 1   
    10     4     5 1   
    11     4     6 1   
    12     7     8 1   
    13     7    14 1   
    14     7    15 1   
    15     8    10 1   
    16     8    21 1   
    17     8    22 1   
    18     9    10 1   
    19     9    23 1   
    20     9    24 1   
    21     9    25 1   
    22    10    11 1   
    23    10    26 1   
    24    11    12 1   
    25    11    13 1   
@<TRIPOS>SUBSTRUCTURE
     1 AEP         1 TEMP              0 ****  ****    0 ROOT
