@<TRIPOS>MOLECULE
AEP
   26    25     1     0     0
SMALL
No Charge or Current Charge


@<TRIPOS>ATOM
      1 N           -1.0810     5.0650     2.3270 n8         1 AEP      -0.969200
      2 C1          -0.4870     3.6890     2.0570 c3         1 AEP      -0.179500
      3 C2          -0.2780     3.5620     0.5110 c3         1 AEP      -0.201400
      4 C3          -1.6110     3.5600    -0.2750 c          1 AEP       0.706000
      5 O1          -2.1780     2.4920    -0.4520 o          1 AEP      -0.783500
      6 O2          -2.0580     4.6260    -0.6710 o          1 AEP      -0.783500
      7 P            0.9970     3.0000     3.0870 p5         1 AEP       1.425000
      8 C4           1.1940     1.2100     2.6150 c3         1 AEP      -0.407400
      9 C5           0.2250    -1.1330     2.1720 c3         1 AEP      -0.050100
     10 C6          -0.0810     0.2980     2.6740 c3         1 AEP      -0.154700
     11 C7          -0.7670     0.2650     4.0750 c          1 AEP       0.739000
     12 O3          -0.1590    -0.2180     5.0210 o          1 AEP      -0.763500
     13 O4          -1.9140     0.6800     4.1630 o          1 AEP      -0.763500
     14 O1P          0.7180     3.1110     4.5570 o          1 AEP      -0.855000
     15 O2P          2.2550     3.7310     2.7180 o          1 AEP      -0.855000
     16 HN1         -1.7380     5.2950     1.5700 hn         1 AEP       0.362500
     17 HN2         -0.3500     5.7810     2.2340 hn         1 AEP       0.362500
     18 H1          -1.2540     2.9540     2.3330 h1         1 AEP       0.087700
     19 H21          0.3460     4.4140     0.2100 hc         1 AEP       0.019200
     20 H22          0.2170     2.5970     0.3550 hc         1 AEP       0.019200
     21 H41          1.9640     0.8010     3.2780 hc         1 AEP       0.021200
     22 H42          1.6110     1.1920     1.6020 hc         1 AEP       0.021200
     23 H51          0.9750    -1.6210     2.8050 hc         1 AEP      -0.012967
     24 H52          0.6060    -1.1100     1.1440 hc         1 AEP      -0.012967
     25 H53         -0.6850    -1.7440     2.1820 hc         1 AEP      -0.012967
     26 H6          -0.8070     0.7230     1.9710 hc         1 AEP       0.039700
@<TRIPOS>BOND
     1     1     2 1   
     2     1    16 1   
     3     1    17 1   
     4     2     3 1   
     5     2     7 1   
     6     2    18 1   
     7     3     4 1   
     8     3    19 1   
     9     3    20 1   
    10     4     5 1   
    11     4     6 1   
    12     7     8 1   
    13     7    14 1   
    14     7    15 1   
    15     8    10 1   
    16     8    21 1   
    17     8    22 1   
    18     9    10 1   
    19     9    23 1   
    20     9    24 1   
    21     9    25 1   
    22    10    11 1   
    23    10    26 1   
    24    11    12 1   
    25    11    13 1   
@<TRIPOS>SUBSTRUCTURE
     1 AEP         1 TEMP              0 ****  ****    0 ROOT
