@<TRIPOS>MOLECULE
AEQ
   35    36     1     0     0
SMALL
bcc


@<TRIPOS>ATOM
      1 C6          -0.6370     0.0750     0.2460 ca         1 AEQ       0.090600
      2 C1          -4.3360    -0.6660    -0.0180 c3         1 AEQ      -0.153400
      3 C5          -0.6530     2.5480    -0.3760 c6         1 AEQ      -0.025100
      4 C4          -2.1710     2.4550    -0.2780 c6         1 AEQ      -0.101400
      5 C3          -2.5460     1.4400     0.7870 c6         1 AEQ       0.096000
      6 C2          -5.1200    -1.8660    -0.5230 c3         1 AEQ      -0.078100
      7 C7           0.0490     1.2340    -0.1320 ca         1 AEQ      -0.128300
      8 C9           2.1440     0.0130     0.0070 ca         1 AEQ      -0.156600
      9 O           -2.3680    -1.8260    -0.6990 o          1 AEQ      -0.570100
     10 C8           1.4330     1.1780    -0.2460 ca         1 AEQ      -0.062000
     11 C10          3.6190     0.0390    -0.1390 c          1 AEQ       0.658700
     12 C11          5.5960    -1.2290     0.0100 c3         1 AEQ       0.130700
     13 C13          0.0750    -1.0930     0.5310 ca         1 AEQ      -0.137000
     14 C12          1.4480    -1.1280     0.4090 ca         1 AEQ      -0.061000
     15 O2           4.2510     1.0240    -0.4420 o          1 AEQ      -0.544000
     16 O1           4.1750    -1.1380     0.1010 os         1 AEQ      -0.415900
     17 N           -2.0390     0.1290     0.3930 n          1 AEQ      -0.393000
     18 C           -2.8380    -0.8500    -0.1460 c          1 AEQ       0.672100
     19 H1          -4.6360     0.2290    -0.5720 hc         1 AEQ       0.058200
     20 H2          -4.5910    -0.4670     1.0260 hc         1 AEQ       0.058200
     21 H3          -0.3550     2.9450    -1.3480 hc         1 AEQ       0.054700
     22 H4          -0.2870     3.2640     0.3650 hc         1 AEQ       0.054700
     23 H5          -2.5930     3.4310    -0.0360 hc         1 AEQ       0.053200
     24 H6          -2.6070     2.1430    -1.2300 hc         1 AEQ       0.053200
     25 H7          -2.1030     1.7080     1.7490 h1         1 AEQ       0.057200
     26 H8          -3.6200     1.3990     0.9360 h1         1 AEQ       0.057200
     27 H9          -4.9440    -2.0500    -1.5810 hc         1 AEQ       0.043700
     28 H10         -4.8640    -2.7730     0.0240 hc         1 AEQ       0.043700
     29 H11         -6.1860    -1.6880    -0.3890 hc         1 AEQ       0.043700
     30 H12          1.9620     2.0740    -0.5460 ha         1 AEQ       0.151000
     31 H13          5.9490    -0.9920    -0.9930 h1         1 AEQ       0.048033
     32 H14          6.0830    -0.5710     0.7290 h1         1 AEQ       0.048033
     33 H15          5.8430    -2.2600     0.2440 h1         1 AEQ       0.048033
     34 H16         -0.4430    -1.9770     0.8720 ha         1 AEQ       0.154000
     35 H17          1.9690    -2.0450     0.6450 ha         1 AEQ       0.150000
@<TRIPOS>BOND
     1     1     7 ar  
     2     1    13 ar  
     3     1    17 1   
     4     2     6 1   
     5     2    18 1   
     6     2    19 1   
     7     2    20 1   
     8     3     4 1   
     9     3     7 1   
    10     3    21 1   
    11     3    22 1   
    12     4     5 1   
    13     4    23 1   
    14     4    24 1   
    15     5    17 1   
    16     5    25 1   
    17     5    26 1   
    18     6    27 1   
    19     6    28 1   
    20     6    29 1   
    21     7    10 ar  
    22     8    10 ar  
    23     8    11 1   
    24     8    14 ar  
    25     9    18 2   
    26    10    30 1   
    27    11    15 2   
    28    11    16 1   
    29    12    16 1   
    30    12    31 1   
    31    12    32 1   
    32    12    33 1   
    33    13    14 ar  
    34    13    34 1   
    35    14    35 1   
    36    17    18 1   
@<TRIPOS>SUBSTRUCTURE
     1 AEQ         1 TEMP              0 ****  ****    0 ROOT
