@<TRIPOS>MOLECULE
AEQ
   35    36     1     0     0
SMALL
No Charge or Current Charge


@<TRIPOS>ATOM
      1 C6          -0.6710     0.2090     0.2060 ca         1 AEQ      -0.002000
      2 C1          -4.4150    -0.8300     0.0220 c3         1 AEQ      -0.153400
      3 C5          -0.5530     2.7570    -0.1520 c6         1 AEQ      -0.025100
      4 C4          -2.0750     2.6890    -0.3920 c6         1 AEQ      -0.101400
      5 C3          -2.7100     1.5980     0.4880 c6         1 AEQ       0.096000
      6 C2          -5.0750    -2.2210    -0.1280 c3         1 AEQ      -0.078100
      7 C7           0.1020     1.3750    -0.0310 ca         1 AEQ      -0.128300
      8 C9           2.1710     0.0550     0.0240 ca         1 AEQ      -0.156600
      9 O           -2.4720    -1.5820    -1.1810 o          1 AEQ      -0.570100
     10 C8           1.5060     1.2920    -0.0990 ca         1 AEQ      -0.044000
     11 C10          3.6790    -0.0020    -0.0560 c          1 AEQ       0.609700
     12 C11          5.6220    -1.4320     0.0190 c3         1 AEQ       0.153900
     13 C13         -0.0020    -1.0310     0.2890 ca         1 AEQ      -0.119000
     14 C12          1.3980    -1.1090     0.2160 ca         1 AEQ      -0.043000
     15 O2           4.3740     0.9920    -0.2270 o          1 AEQ      -0.495000
     16 O1           4.1930    -1.2680     0.0810 os         1 AEQ      -0.439100
     17 N           -2.1180     0.2760     0.1530 n          1 AEQ      -0.233400
     18 C           -2.9320    -0.7500    -0.4060 c          1 AEQ       0.605100
     19 H1          -4.9670    -0.0870    -0.5660 hc         1 AEQ       0.058200
     20 H2          -4.5130    -0.4540     1.0470 hc         1 AEQ       0.058200
     21 H3          -0.0810     3.3320    -0.9600 hc         1 AEQ       0.054700
     22 H4          -0.3610     3.3170     0.7740 hc         1 AEQ       0.054700
     23 H5          -2.5350     3.6650    -0.1830 hc         1 AEQ       0.053200
     24 H6          -2.2740     2.4650    -1.4490 hc         1 AEQ       0.053200
     25 H7          -2.5230     1.8170     1.5490 h1         1 AEQ       0.057200
     26 H8          -3.7950     1.6150     0.3330 h1         1 AEQ       0.057200
     27 H9          -5.0680    -2.5470    -1.1750 hc         1 AEQ       0.043700
     28 H10         -4.5410    -2.9690     0.4720 hc         1 AEQ       0.043700
     29 H11         -6.1170    -2.1890     0.2120 hc         1 AEQ       0.043700
     30 H12          2.0830     2.2020    -0.2530 ha         1 AEQ       0.133000
     31 H13          6.0140    -1.0930    -0.9480 h1         1 AEQ       0.048033
     32 H14          6.1170    -0.8610     0.8150 h1         1 AEQ       0.048033
     33 H15          5.8910    -2.4890     0.1430 h1         1 AEQ       0.048033
     34 H16         -0.5630    -1.9500     0.4390 ha         1 AEQ       0.136000
     35 H17          1.8720    -2.0850     0.3060 ha         1 AEQ       0.132000
@<TRIPOS>BOND
     1     1     7 ar  
     2     1    13 ar  
     3     1    17 1   
     4     2     6 1   
     5     2    18 1   
     6     2    19 1   
     7     2    20 1   
     8     3     4 1   
     9     3     7 1   
    10     3    21 1   
    11     3    22 1   
    12     4     5 1   
    13     4    23 1   
    14     4    24 1   
    15     5    17 1   
    16     5    25 1   
    17     5    26 1   
    18     6    27 1   
    19     6    28 1   
    20     6    29 1   
    21     7    10 ar  
    22     8    10 ar  
    23     8    11 1   
    24     8    14 ar  
    25     9    18 2   
    26    10    30 1   
    27    11    15 2   
    28    11    16 1   
    29    12    16 1   
    30    12    31 1   
    31    12    32 1   
    32    12    33 1   
    33    13    14 ar  
    34    13    34 1   
    35    14    35 1   
    36    17    18 1   
@<TRIPOS>SUBSTRUCTURE
     1 AEQ         1 TEMP              0 ****  ****    0 ROOT
