@<TRIPOS>MOLECULE
AER
   57    61     1     0     0
SMALL
No Charge or Current Charge


@<TRIPOS>ATOM
      1 C1          -3.3070     1.7430    -0.5320 c6         1 AER      -0.067400
      2 C2          -4.8410     1.9350    -0.4480 c6         1 AER      -0.071400
      3 C3          -5.5770     0.6600    -0.9080 c6         1 AER       0.173300
      4 O3          -6.9920     0.8540    -0.8180 oh         1 AER      -0.660000
      5 C4          -5.1460    -0.5440    -0.0430 c6         1 AER      -0.074200
      6 C5          -3.6250    -0.7410    -0.0300 c2         1 AER      -0.106400
      7 C6          -3.1000    -1.9600    -0.2490 c2         1 AER      -0.218200
      8 C7          -1.6150    -2.2780    -0.2410 c6         1 AER      -0.037200
      9 C8          -0.7530    -1.1470     0.3740 c6         1 AER      -0.040700
     10 C9          -1.2580     0.2540    -0.1290 c6         1 AER      -0.047700
     11 C10         -2.7690     0.5120     0.2810 c6         1 AER       0.003200
     12 C11         -0.2770     1.4300     0.2610 c6         1 AER      -0.071400
     13 C12          1.2200     1.1440    -0.0750 c6         1 AER      -0.060400
     14 C13          1.6700    -0.2020     0.5550 c5         1 AER      -0.004800
     15 C14          0.7390    -1.3180    -0.0190 c5         1 AER      -0.067700
     16 C15          1.5210    -2.6220     0.3220 c5         1 AER      -0.043200
     17 C16          2.9330    -2.1790    -0.0260 c2         1 AER      -0.211200
     18 C17          2.9620    -0.8320     0.0340 ce         1 AER      -0.067400
     19 C18          1.7000    -0.1010     2.1160 c3         1 AER      -0.080100
     20 C19         -2.9140     0.7840     1.8200 c3         1 AER      -0.080100
     21 C20          4.1980    -0.0560    -0.3000 ca         1 AER      -0.078800
     22 C21          4.5670     1.1130     0.4040 ca         1 AER       0.343900
     23 N22          5.6780     1.8390     0.1270 nb         1 AER      -0.669000
     24 C23          6.4710     1.4160    -0.8840 ca         1 AER       0.333900
     25 C24          6.1870     0.2690    -1.6430 ca         1 AER      -0.164000
     26 C25          5.0360    -0.4810    -1.3510 ca         1 AER      -0.072000
     27 H1          -3.0350     1.6310    -1.5910 hc         1 AER       0.042700
     28 H1A         -2.8230     2.6680    -0.1920 hc         1 AER       0.042700
     29 H2          -5.1390     2.2000     0.5750 hc         1 AER       0.053700
     30 H2A         -5.1370     2.7810    -1.0830 hc         1 AER       0.053700
     31 H3          -5.2970     0.4560    -1.9530 h1         1 AER       0.030700
     32 HO3         -7.4100     0.0410    -1.1780 ho         1 AER       0.441000
     33 H4          -5.5040    -0.4040     0.9850 hc         1 AER       0.049700
     34 H4A         -5.6430    -1.4520    -0.4100 hc         1 AER       0.049700
     35 H6          -3.7520    -2.8120    -0.4500 ha         1 AER       0.169000
     36 H7          -1.4440    -3.2100     0.3140 hc         1 AER       0.047200
     37 H7A         -1.3030    -2.4750    -1.2760 hc         1 AER       0.047200
     38 H8          -0.8430    -1.2070     1.4650 hc         1 AER       0.057700
     39 H9          -1.2350     0.2010    -1.2270 hc         1 AER       0.045700
     40 H11         -0.5690     2.3490    -0.2630 hc         1 AER       0.040700
     41 H11A        -0.3550     1.6630     1.3290 hc         1 AER       0.040700
     42 H12          1.3490     1.1070    -1.1660 hc         1 AER       0.045200
     43 H12A         1.8450     1.9720     0.2820 hc         1 AER       0.045200
     44 H14          0.7230    -1.2350    -1.1150 hc         1 AER       0.048700
     45 H15          1.4290    -2.9130     1.3740 hc         1 AER       0.052700
     46 H15A         1.1970    -3.4720    -0.2900 hc         1 AER       0.052700
     47 H16          3.7570    -2.8260    -0.3310 ha         1 AER       0.187000
     48 H18          0.7060     0.0540     2.5490 hc         1 AER       0.036033
     49 H18A         2.1100    -1.0080     2.5750 hc         1 AER       0.036033
     50 H18B         2.3220     0.7340     2.4550 hc         1 AER       0.036033
     51 H19         -2.4940    -0.0280     2.4230 hc         1 AER       0.035367
     52 H19A        -2.4220     1.7140     2.1230 hc         1 AER       0.035367
     53 H19B        -3.9610     0.8850     2.1240 hc         1 AER       0.035367
     54 H21          3.9640     1.4870     1.2270 h4         1 AER       0.021100
     55 H23          7.3570     2.0140    -1.0910 h4         1 AER       0.019100
     56 H24          6.8530    -0.0280    -2.4470 ha         1 AER       0.123000
     57 H25          4.7970    -1.3650    -1.9380 ha         1 AER       0.118000
@<TRIPOS>BOND
     1     1     2 1   
     2     1    11 1   
     3     1    27 1   
     4     1    28 1   
     5     2     3 1   
     6     2    29 1   
     7     2    30 1   
     8     3     4 1   
     9     3     5 1   
    10     3    31 1   
    11     4    32 1   
    12     5     6 1   
    13     5    33 1   
    14     5    34 1   
    15     6     7 2   
    16     6    11 1   
    17     7     8 1   
    18     7    35 1   
    19     8     9 1   
    20     8    36 1   
    21     8    37 1   
    22     9    10 1   
    23     9    15 1   
    24     9    38 1   
    25    10    11 1   
    26    10    12 1   
    27    10    39 1   
    28    11    20 1   
    29    12    13 1   
    30    12    40 1   
    31    12    41 1   
    32    13    14 1   
    33    13    42 1   
    34    13    43 1   
    35    14    15 1   
    36    14    18 1   
    37    14    19 1   
    38    15    16 1   
    39    15    44 1   
    40    16    17 1   
    41    16    45 1   
    42    16    46 1   
    43    17    18 2   
    44    17    47 1   
    45    18    21 1   
    46    19    48 1   
    47    19    49 1   
    48    19    50 1   
    49    20    51 1   
    50    20    52 1   
    51    20    53 1   
    52    21    22 ar  
    53    21    26 ar  
    54    22    23 ar  
    55    22    54 1   
    56    23    24 ar  
    57    24    25 ar  
    58    24    55 1   
    59    25    26 ar  
    60    25    56 1   
    61    26    57 1   
@<TRIPOS>SUBSTRUCTURE
     1 AER         1 TEMP              0 ****  ****    0 ROOT
