@<TRIPOS>MOLECULE
AER
   57    61     1     0     0
SMALL
abcg2


@<TRIPOS>ATOM
      1 C1          -3.2910     1.6660    -0.5560 c6         1 AER      -0.067400
      2 C2          -4.7930     1.8820    -0.4170 c6         1 AER      -0.071400
      3 C3          -5.5490     0.6190    -0.7790 c6         1 AER       0.173300
      4 O3          -6.9330     0.8670    -0.6420 oh         1 AER      -0.660000
      5 C4          -5.0830    -0.5280     0.1140 c6         1 AER      -0.074200
      6 C5          -3.5920    -0.7280     0.0410 c2         1 AER      -0.106400
      7 C6          -3.0840    -1.9320    -0.2200 c2         1 AER      -0.218200
      8 C7          -1.6270    -2.2500    -0.2710 c6         1 AER      -0.037200
      9 C8          -0.7640    -1.1440     0.3220 c6         1 AER      -0.040700
     10 C9          -1.2690     0.2250    -0.1670 c6         1 AER      -0.047700
     11 C10         -2.7270     0.5000     0.2840 c6         1 AER       0.003200
     12 C11         -0.3110     1.3810     0.1660 c6         1 AER      -0.071400
     13 C12          1.1570     1.1160    -0.1850 c6         1 AER      -0.060400
     14 C13          1.6170    -0.2040     0.4280 c5         1 AER      -0.004800
     15 C14          0.6810    -1.2990    -0.1090 c5         1 AER      -0.067700
     16 C15          1.4520    -2.5960     0.1370 c5         1 AER      -0.043200
     17 C16          2.8570    -2.1170    -0.1030 c2         1 AER      -0.211200
     18 C17          2.9580    -0.7840    -0.0140 ce         1 AER      -0.067400
     19 C18          1.6100    -0.1370     1.9650 c3         1 AER      -0.080100
     20 C19         -2.7980     0.8530     1.7790 c3         1 AER      -0.080100
     21 C20          4.1880    -0.0250    -0.2570 ca         1 AER      -0.078800
     22 C21          4.4710     1.1890     0.3750 ca         1 AER       0.343900
     23 N22          5.5740     1.8970     0.1720 nb         1 AER      -0.669000
     24 C23          6.4730     1.4310    -0.6850 ca         1 AER       0.333900
     25 C24          6.3040     0.2380    -1.3730 ca         1 AER      -0.164000
     26 C25          5.1480    -0.4890    -1.1610 ca         1 AER      -0.072000
     27 H1          -3.0590     1.4780    -1.6100 hc         1 AER       0.042700
     28 H1A         -2.7730     2.5900    -0.2890 hc         1 AER       0.042700
     29 H2          -5.0460     2.1760     0.6080 hc         1 AER       0.053700
     30 H2A         -5.1030     2.7050    -1.0660 hc         1 AER       0.053700
     31 H3          -5.3070     0.3590    -1.8220 h1         1 AER       0.030700
     32 HO3         -7.4070     0.0720    -0.9030 ho         1 AER       0.441000
     33 H4          -5.3930    -0.3030     1.1410 hc         1 AER       0.049700
     34 H4A         -5.5910    -1.4560    -0.1670 hc         1 AER       0.049700
     35 H6          -3.7690    -2.7550    -0.4040 ha         1 AER       0.169000
     36 H7          -1.4400    -3.1940     0.2510 hc         1 AER       0.047200
     37 H7A         -1.3310    -2.4330    -1.3130 hc         1 AER       0.047200
     38 H8          -0.8410    -1.2010     1.4140 hc         1 AER       0.057700
     39 H9          -1.2960     0.1480    -1.2650 hc         1 AER       0.045700
     40 H11         -0.6360     2.2800    -0.3640 hc         1 AER       0.040700
     41 H11A        -0.3750     1.6300     1.2270 hc         1 AER       0.040700
     42 H12          1.2800     1.0680    -1.2720 hc         1 AER       0.045200
     43 H12A         1.7560     1.9630     0.1590 hc         1 AER       0.045200
     44 H14          0.6850    -1.1710    -1.2020 hc         1 AER       0.048700
     45 H15          1.3280    -2.9760     1.1590 hc         1 AER       0.052700
     46 H15A         1.1590    -3.4070    -0.5330 hc         1 AER       0.052700
     47 H16          3.6830    -2.7900    -0.3020 ha         1 AER       0.187000
     48 H18          0.6450     0.1630     2.3720 hc         1 AER       0.036033
     49 H18A         1.8600    -1.1030     2.4050 hc         1 AER       0.036033
     50 H18B         2.3420     0.5840     2.3320 hc         1 AER       0.036033
     51 H19         -2.2960     0.1000     2.3900 hc         1 AER       0.035367
     52 H19A        -2.3400     1.8190     1.9910 hc         1 AER       0.035367
     53 H19B        -3.8270     0.9110     2.1320 hc         1 AER       0.035367
     54 H21          3.7750     1.6090     1.0910 h4         1 AER       0.021100
     55 H23          7.3630     2.0320    -0.8350 h4         1 AER       0.019100
     56 H24          7.0580    -0.1040    -2.0690 ha         1 AER       0.123000
     57 H25          4.9780    -1.4100    -1.7040 ha         1 AER       0.118000
@<TRIPOS>BOND
     1     1     2 1   
     2     1    11 1   
     3     1    27 1   
     4     1    28 1   
     5     2     3 1   
     6     2    29 1   
     7     2    30 1   
     8     3     4 1   
     9     3     5 1   
    10     3    31 1   
    11     4    32 1   
    12     5     6 1   
    13     5    33 1   
    14     5    34 1   
    15     6     7 2   
    16     6    11 1   
    17     7     8 1   
    18     7    35 1   
    19     8     9 1   
    20     8    36 1   
    21     8    37 1   
    22     9    10 1   
    23     9    15 1   
    24     9    38 1   
    25    10    11 1   
    26    10    12 1   
    27    10    39 1   
    28    11    20 1   
    29    12    13 1   
    30    12    40 1   
    31    12    41 1   
    32    13    14 1   
    33    13    42 1   
    34    13    43 1   
    35    14    15 1   
    36    14    18 1   
    37    14    19 1   
    38    15    16 1   
    39    15    44 1   
    40    16    17 1   
    41    16    45 1   
    42    16    46 1   
    43    17    18 2   
    44    17    47 1   
    45    18    21 1   
    46    19    48 1   
    47    19    49 1   
    48    19    50 1   
    49    20    51 1   
    50    20    52 1   
    51    20    53 1   
    52    21    22 ar  
    53    21    26 ar  
    54    22    23 ar  
    55    22    54 1   
    56    23    24 ar  
    57    24    25 ar  
    58    24    55 1   
    59    25    26 ar  
    60    25    56 1   
    61    26    57 1   
@<TRIPOS>SUBSTRUCTURE
     1 AER         1 TEMP              0 ****  ****    0 ROOT
