@<TRIPOS>MOLECULE
AES
   23    23     1     0     0
SMALL
No Charge or Current Charge


@<TRIPOS>ATOM
      1 C3           1.1930    -1.2060     0.3590 ca         1 AES      -0.130500
      2 C2          -0.1960    -1.2260     0.1390 ca         1 AES      -0.000500
      3 C1          -0.9060    -0.0130     0.0090 ca         1 AES      -0.344500
      4 S           -2.6960    -0.0310    -0.2690 sy         1 AES       1.341400
      5 F           -3.2340    -0.0140     1.2700 f          1 AES      -0.264900
      6 O1S         -3.1260     1.2480    -0.8580 o          1 AES      -0.539500
      7 O2S         -3.1050    -1.3320    -0.8220 o          1 AES      -0.539500
      8 C6          -0.2150     1.2140     0.1050 ca         1 AES      -0.000500
      9 C5           1.1730     1.2230     0.3250 ca         1 AES      -0.130500
     10 C4           1.8850     0.0160     0.4540 ca         1 AES      -0.009300
     11 C7           3.3890     0.0310     0.6880 c3         1 AES      -0.048100
     12 C8           4.1790     0.0360    -0.6360 c3         1 AES       0.153800
     13 N8           5.6380     0.0600    -0.4080 n8         1 AES      -0.999200
     14 H3           1.7310    -2.1460     0.4540 ha         1 AES       0.123000
     15 H2          -0.7100    -2.1840     0.0700 ha         1 AES       0.140500
     16 H6          -0.7450     2.1620     0.0100 ha         1 AES       0.140500
     17 H5           1.6970     2.1740     0.3950 ha         1 AES       0.123000
     18 H71          3.6680     0.9140     1.2760 hc         1 AES       0.062700
     19 H72          3.6860    -0.8410     1.2840 hc         1 AES       0.062700
     20 H81          3.9250    -0.8600    -1.2200 h1         1 AES       0.032700
     21 H82          3.9010     0.9220    -1.2240 h1         1 AES       0.032700
     22 HN81         5.9190    -0.8140     0.0550 hn         1 AES       0.397000
     23 HN82         6.1190     0.0140    -1.3150 hn         1 AES       0.397000
@<TRIPOS>BOND
     1     1     2 ar  
     2     1    10 ar  
     3     1    14 1   
     4     2     3 ar  
     5     2    15 1   
     6     3     4 1   
     7     3     8 ar  
     8     4     5 1   
     9     4     6 2   
    10     4     7 2   
    11     8     9 ar  
    12     8    16 1   
    13     9    10 ar  
    14     9    17 1   
    15    10    11 1   
    16    11    12 1   
    17    11    18 1   
    18    11    19 1   
    19    12    13 1   
    20    12    20 1   
    21    12    21 1   
    22    13    22 1   
    23    13    23 1   
@<TRIPOS>SUBSTRUCTURE
     1 AES         1 TEMP              0 ****  ****    0 ROOT
