@<TRIPOS>MOLECULE
AES
   23    23     1     0     0
SMALL
bcc


@<TRIPOS>ATOM
      1 C3           1.1510    -1.2510     0.4440 ca         1 AES      -0.148500
      2 C2          -0.2130    -1.2480     0.2090 ca         1 AES      -0.018500
      3 C1          -0.8510    -0.0320     0.0080 ca         1 AES      -0.344500
      4 S           -2.5720    -0.0100    -0.2900 sy         1 AES       1.483000
      5 F           -3.1060     0.1930     1.2080 f          1 AES      -0.264900
      6 O1S         -2.9640     1.1830    -0.9920 o          1 AES      -0.610300
      7 O2S         -3.0480    -1.3070    -0.6910 o          1 AES      -0.610300
      8 C6          -0.1550     1.1720     0.0390 ca         1 AES      -0.018500
      9 C5           1.2050     1.1430     0.2800 ca         1 AES      -0.148500
     10 C4           1.8770    -0.0620     0.4850 ca         1 AES      -0.009300
     11 C7           3.3610    -0.0700     0.6950 c3         1 AES      -0.048100
     12 C8           4.1160     0.0990    -0.6240 c3         1 AES       0.153800
     13 N8           5.5490     0.1160    -0.3840 n8         1 AES      -0.888800
     14 H3           1.6570    -2.1950     0.6020 ha         1 AES       0.141000
     15 H2          -0.7580    -2.1820     0.1790 ha         1 AES       0.158500
     16 H6          -0.6560     2.1170    -0.1230 ha         1 AES       0.158500
     17 H5           1.7550     2.0760     0.3100 ha         1 AES       0.141000
     18 H71          3.6470     0.7390     1.3710 hc         1 AES       0.062700
     19 H72          3.6640    -1.0080     1.1670 hc         1 AES       0.062700
     20 H81          3.7900    -0.6850    -1.3220 h1         1 AES       0.032700
     21 H82          3.8320     1.0520    -1.0760 h1         1 AES       0.032700
     22 HN81         5.8550    -0.8080    -0.1060 hn         1 AES       0.341800
     23 HN82         6.0340     0.3160    -1.2490 hn         1 AES       0.341800
@<TRIPOS>BOND
     1     1     2 ar  
     2     1    10 ar  
     3     1    14 1   
     4     2     3 ar  
     5     2    15 1   
     6     3     4 1   
     7     3     8 ar  
     8     4     5 1   
     9     4     6 2   
    10     4     7 2   
    11     8     9 ar  
    12     8    16 1   
    13     9    10 ar  
    14     9    17 1   
    15    10    11 1   
    16    11    12 1   
    17    11    18 1   
    18    11    19 1   
    19    12    13 1   
    20    12    20 1   
    21    12    21 1   
    22    13    22 1   
    23    13    23 1   
@<TRIPOS>SUBSTRUCTURE
     1 AES         1 TEMP              0 ****  ****    0 ROOT
