@<TRIPOS>MOLECULE
AEU
   47    51     1     0     0
SMALL
No Charge or Current Charge


@<TRIPOS>ATOM
      1 C10        -18.1430   -63.1980    39.3010 ca         1 AEU       0.366900
      2 C13        -16.4370   -64.7890    37.7730 ca         1 AEU      -0.176000
      3 C15        -17.1280   -64.6680    34.8030 c3         1 AEU       0.256100
      4 C17        -18.8610   -65.0800    32.9860 ca         1 AEU      -0.100000
      5 C20        -17.9460   -62.8660    31.5160 ca         1 AEU       0.114100
      6 C21        -17.3410   -63.1960    32.7400 ca         1 AEU      -0.116000
      7 C24        -17.6970   -60.5320    28.7800 ca         1 AEU      -0.143500
      8 C26        -17.1920   -61.5940    26.6490 ca         1 AEU      -0.130000
      9 C28        -16.9810   -62.8590    28.7190 ca         1 AEU      -0.143500
     10 C01        -14.2520   -66.2670    39.8500 ca         1 AEU      -0.038000
     11 C02        -13.5100   -66.7120    40.9670 ca         1 AEU      -0.157000
     12 C03        -13.8310   -66.2710    42.2760 ca         1 AEU      -0.068000
     13 C04        -14.9030   -65.3750    42.4900 ca         1 AEU      -0.154000
     14 C05        -15.6180   -64.9530    41.3660 ca         1 AEU       0.016800
     15 C06        -15.3180   -65.3750    40.0730 cp         1 AEU      -0.112000
     16 C07        -16.2600   -64.7390    39.1640 cp         1 AEU      -0.013000
     17 C08        -17.1190   -63.9420    39.9070 ca         1 AEU      -0.110200
     18 N09        -16.7150   -64.0830    41.2500 na         1 AEU      -0.227600
     19 N11        -18.3220   -63.2400    37.9530 nb         1 AEU      -0.715000
     20 C12        -17.4880   -64.0140    37.2350 ca         1 AEU       0.560900
     21 N14        -17.7840   -63.9580    35.9010 nu         1 AEU      -0.905100
     22 C16        -17.7900   -64.3080    33.4800 ca         1 AEU      -0.087300
     23 C18        -19.4770   -64.7430    31.7680 ca         1 AEU      -0.094000
     24 C19        -19.0230   -63.6340    31.0340 ca         1 AEU      -0.143000
     25 C23        -17.4000   -61.7300    29.4500 ca         1 AEU       0.119100
     26 C25        -17.5980   -60.4630    27.3790 ca         1 AEU      -0.087500
     27 C27        -16.8810   -62.7920    27.3170 ca         1 AEU      -0.087500
     28 H101       -18.8200   -62.5710    39.8800 h4         1 AEU       0.019100
     29 H131       -15.7940   -65.3950    37.1440 ha         1 AEU       0.126000
     30 H151       -17.1930   -65.7540    34.9620 h1         1 AEU       0.044200
     31 H152       -16.0630   -64.4010    34.7640 h1         1 AEU       0.044200
     32 H171       -19.2200   -65.9380    33.5510 ha         1 AEU       0.124000
     33 H211       -16.5200   -62.5880    33.1120 ha         1 AEU       0.129000
     34 H261       -17.1140   -61.5420    25.5650 ha         1 AEU       0.116000
     35 H281       -16.7290   -63.7840    29.2320 ha         1 AEU       0.127500
     36 H011       -14.0080   -66.6040    38.8450 ha         1 AEU       0.115000
     37 H021       -12.6820   -67.4020    40.8210 ha         1 AEU       0.114000
     38 H031       -13.2480   -66.6250    43.1230 ha         1 AEU       0.111000
     39 H041       -15.1590   -65.0290    43.4880 ha         1 AEU       0.117000
     40 H091       -17.1560   -63.6170    42.0360 hn         1 AEU       0.355000
     41 H141       -18.5730   -63.3580    35.6810 hn         1 AEU       0.481000
     42 H181       -20.3080   -65.3390    31.3970 ha         1 AEU       0.118000
     43 H191       -19.5100   -63.3720    30.0980 ha         1 AEU       0.128000
     44 H251       -17.8330   -59.5360    26.8600 ha         1 AEU       0.115000
     45 H271       -16.5610   -63.6640    26.7520 ha         1 AEU       0.115000
     46 O22        -17.4920   -61.7650    30.8240 os         1 AEU      -0.255200
     47 H241       -18.0080   -59.6580    29.3470 ha         1 AEU       0.127500
@<TRIPOS>BOND
     1     1    17 ar  
     2     1    19 ar  
     3     1    28 1   
     4     2    16 ar  
     5     2    20 ar  
     6     2    29 1   
     7     3    21 1   
     8     3    22 1   
     9     3    30 1   
    10     3    31 1   
    11     4    22 ar  
    12     4    23 ar  
    13     4    32 1   
    14     5     6 ar  
    15     5    24 ar  
    16     5    46 1   
    17     6    22 ar  
    18     6    33 1   
    19     7    25 ar  
    20     7    26 ar  
    21     7    47 1   
    22     8    26 ar  
    23     8    27 ar  
    24     8    34 1   
    25     9    25 ar  
    26     9    27 ar  
    27     9    35 1   
    28    10    11 ar  
    29    10    15 ar  
    30    10    36 1   
    31    11    12 ar  
    32    11    37 1   
    33    12    13 ar  
    34    12    38 1   
    35    13    14 ar  
    36    13    39 1   
    37    14    15 ar  
    38    14    18 1   
    39    15    16 1   
    40    16    17 ar  
    41    17    18 1   
    42    18    40 1   
    43    19    20 ar  
    44    20    21 1   
    45    21    41 1   
    46    23    24 ar  
    47    23    42 1   
    48    24    43 1   
    49    25    46 1   
    50    26    44 1   
    51    27    45 1   
@<TRIPOS>SUBSTRUCTURE
     1 AEU         1 TEMP              0 ****  ****    0 ROOT
