@<TRIPOS>MOLECULE
AEU
   47    51     1     0     0
SMALL
abcg2


@<TRIPOS>ATOM
      1 C10        -18.0980   -63.1600    39.3970 ca         1 AEU       0.366900
      2 C13        -16.5690   -64.7240    37.7100 ca         1 AEU      -0.176000
      3 C15        -17.0890   -64.2750    34.8900 c3         1 AEU       0.256100
      4 C17        -18.7220   -64.9810    33.1150 ca         1 AEU      -0.100000
      5 C20        -18.0520   -62.8090    31.5330 ca         1 AEU       0.114100
      6 C21        -17.4160   -62.9990    32.7530 ca         1 AEU      -0.116000
      7 C24        -17.9320   -60.7150    28.6910 ca         1 AEU      -0.143500
      8 C26        -17.0310   -61.8030    26.7380 ca         1 AEU      -0.130000
      9 C28        -16.8460   -62.8600    28.9000 ca         1 AEU      -0.143500
     10 C01        -14.3600   -66.3610    39.6600 ca         1 AEU      -0.038000
     11 C02        -13.6220   -66.8520    40.7210 ca         1 AEU      -0.157000
     12 C03        -13.8920   -66.4290    42.0310 ca         1 AEU      -0.068000
     13 C04        -14.8930   -65.5170    42.3110 ca         1 AEU      -0.154000
     14 C05        -15.6360   -65.0240    41.2380 ca         1 AEU       0.016800
     15 C06        -15.3750   -65.4410    39.9140 cp         1 AEU      -0.112000
     16 C07        -16.3180   -64.7480    39.0760 cp         1 AEU      -0.013000
     17 C08        -17.0960   -63.9510    39.9340 ca         1 AEU      -0.110200
     18 N09        -16.6670   -64.1290    41.2300 na         1 AEU      -0.227600
     19 N11        -18.3380   -63.1460    38.0970 nb         1 AEU      -0.715000
     20 C12        -17.6080   -63.9030    37.2650 ca         1 AEU       0.560900
     21 N14        -17.9820   -63.8350    35.9400 nu         1 AEU      -0.905100
     22 C16        -17.7500   -64.0860    33.5520 ca         1 AEU      -0.087300
     23 C18        -19.3490   -64.7860    31.8940 ca         1 AEU      -0.094000
     24 C19        -19.0230   -63.7000    31.0950 ca         1 AEU      -0.143000
     25 C23        -17.5090   -61.7810    29.4740 ca         1 AEU       0.119100
     26 C25        -17.6850   -60.7280    27.3260 ca         1 AEU      -0.087500
     27 C27        -16.6150   -62.8640    27.5320 ca         1 AEU      -0.087500
     28 H101       -18.7170   -62.5250    40.0230 h4         1 AEU       0.019100
     29 H131       -15.9770   -65.3190    37.0280 ha         1 AEU       0.126000
     30 H151       -16.8670   -65.3360    35.0290 h1         1 AEU       0.044200
     31 H152       -16.1290   -63.7430    34.9110 h1         1 AEU       0.044200
     32 H171       -18.9860   -65.8340    33.7290 ha         1 AEU       0.124000
     33 H211       -16.6600   -62.2950    33.0780 ha         1 AEU       0.129000
     34 H261       -16.8450   -61.8130    25.6720 ha         1 AEU       0.116000
     35 H281       -16.5060   -63.6890    29.5080 ha         1 AEU       0.127500
     36 H011       -14.1550   -66.6860    38.6470 ha         1 AEU       0.115000
     37 H021       -12.8310   -67.5680    40.5450 ha         1 AEU       0.114000
     38 H031       -13.3010   -66.8260    42.8460 ha         1 AEU       0.111000
     39 H041       -15.0910   -65.1980    43.3260 ha         1 AEU       0.117000
     40 H091       -17.0580   -63.6810    42.0430 hn         1 AEU       0.355000
     41 H141       -18.5040   -62.9990    35.7250 hn         1 AEU       0.481000
     42 H181       -20.1050   -65.4840    31.5570 ha         1 AEU       0.118000
     43 H191       -19.5230   -63.5510    30.1460 ha         1 AEU       0.128000
     44 H251       -18.0140   -59.8950    26.7190 ha         1 AEU       0.115000
     45 H271       -16.0990   -63.7050    27.0870 ha         1 AEU       0.115000
     46 O22        -17.7230   -61.6900    30.8210 os         1 AEU      -0.255200
     47 H241       -18.4450   -59.8800    29.1510 ha         1 AEU       0.127500
@<TRIPOS>BOND
     1     1    17 ar  
     2     1    19 ar  
     3     1    28 1   
     4     2    16 ar  
     5     2    20 ar  
     6     2    29 1   
     7     3    21 1   
     8     3    22 1   
     9     3    30 1   
    10     3    31 1   
    11     4    22 ar  
    12     4    23 ar  
    13     4    32 1   
    14     5     6 ar  
    15     5    24 ar  
    16     5    46 1   
    17     6    22 ar  
    18     6    33 1   
    19     7    25 ar  
    20     7    26 ar  
    21     7    47 1   
    22     8    26 ar  
    23     8    27 ar  
    24     8    34 1   
    25     9    25 ar  
    26     9    27 ar  
    27     9    35 1   
    28    10    11 ar  
    29    10    15 ar  
    30    10    36 1   
    31    11    12 ar  
    32    11    37 1   
    33    12    13 ar  
    34    12    38 1   
    35    13    14 ar  
    36    13    39 1   
    37    14    15 ar  
    38    14    18 1   
    39    15    16 1   
    40    16    17 ar  
    41    17    18 1   
    42    18    40 1   
    43    19    20 ar  
    44    20    21 1   
    45    21    41 1   
    46    23    24 ar  
    47    23    42 1   
    48    24    43 1   
    49    25    46 1   
    50    26    44 1   
    51    27    45 1   
@<TRIPOS>SUBSTRUCTURE
     1 AEU         1 TEMP              0 ****  ****    0 ROOT
