@<TRIPOS>MOLECULE
AEV
   40    44     1     0     0
SMALL
abcg2


@<TRIPOS>ATOM
      1 CAH          4.8880     2.6320    -0.4350 ca         1 AEV      -0.027000
      2 CAF          5.1570     2.5720    -1.7940 ca         1 AEV      -0.114000
      3 CAG          4.9960     1.3780    -2.4980 ca         1 AEV      -0.083000
      4 CAJ          4.5650     0.2160    -1.8690 ca         1 AEV      -0.088000
      5 CAW          4.3020     0.2860    -0.5140 ca         1 AEV      -0.101300
      6 CAU          4.4600     1.4670     0.1800 ca         1 AEV      -0.173600
      7 CAP          4.0900     1.2220     1.5790 c          1 AEV       0.680700
      8 OAB          4.0730     1.9770     2.5130 o          1 AEV      -0.475000
      9 OAO          3.7520    -0.0720     1.7020 os         1 AEV      -0.424100
     10 CBA          3.8230    -0.7670     0.4440 c5         1 AEV       0.303800
     11 CAX          2.4950    -1.3270     0.0980 cc         1 AEV      -0.279400
     12 CAS          1.3250    -0.5000    -0.0880 c          1 AEV       0.585200
     13 OAC          1.1750     0.6980     0.0270 o          1 AEV      -0.447000
     14 CAQ          2.1340    -2.6230    -0.0730 cd         1 AEV       0.135800
     15 CAA          2.9450    -3.8610    -0.0710 c3         1 AEV      -0.060900
     16 NAM          0.7860    -2.7060    -0.3000 na         1 AEV      -0.534200
     17 NBB          0.3110    -1.4140    -0.4110 n          1 AEV      -0.195700
     18 CAV         -1.0420    -1.1950    -0.3020 cc         1 AEV       0.494400
     19 NAL         -1.8770    -2.1620     0.1540 na         1 AEV      -0.331600
     20 CAY         -3.1400    -1.6300     0.1210 ca         1 AEV      -0.073200
     21 CAK         -4.3850    -2.1390     0.4550 ca         1 AEV      -0.104000
     22 CAI         -5.4690    -1.2970     0.2870 ca         1 AEV      -0.084000
     23 CAR         -5.3100     0.0050    -0.2000 ca         1 AEV       0.098000
     24 CLD         -6.7110     0.9960    -0.3890 cl         1 AEV      -0.176000
     25 CAT         -4.0610     0.5050    -0.5310 ca         1 AEV       0.172000
     26 CLE         -3.8360     2.0970    -1.1280 cl         1 AEV      -0.136000
     27 CAZ         -2.9580    -0.3280    -0.3680 ca         1 AEV       0.089400
     28 NAN         -1.6380    -0.0890    -0.6370 nd         1 AEV      -0.539100
     29 H1           5.0070     3.5530     0.1210 ha         1 AEV       0.138000
     30 H2           5.4940     3.4570    -2.3160 ha         1 AEV       0.121000
     31 H3           5.2100     1.3570    -3.5590 ha         1 AEV       0.117000
     32 H4           4.4390    -0.7020    -2.4270 ha         1 AEV       0.118000
     33 H5           4.5620    -1.5670     0.5430 h1         1 AEV       0.080700
     34 H6           2.4910    -4.6190     0.5660 hc         1 AEV       0.066367
     35 H7           3.0170    -4.2730    -1.0790 hc         1 AEV       0.066367
     36 H8           3.9540    -3.6690     0.2840 hc         1 AEV       0.066367
     37 H9           0.4690    -3.3290    -1.0360 hn         1 AEV       0.488000
     38 H10         -1.6150    -3.0680     0.5120 hn         1 AEV       0.367000
     39 H11         -4.5170    -3.1430     0.8320 ha         1 AEV       0.125000
     40 H12         -6.4620    -1.6470     0.5330 ha         1 AEV       0.132000
@<TRIPOS>BOND
     1     1     2 ar  
     2     1     6 ar  
     3     1    29 1   
     4     2     3 ar  
     5     2    30 1   
     6     3     4 ar  
     7     3    31 1   
     8     4     5 ar  
     9     4    32 1   
    10     5     6 ar  
    11     5    10 1   
    12     6     7 1   
    13     7     8 2   
    14     7     9 1   
    15     9    10 1   
    16    10    11 1   
    17    10    33 1   
    18    11    12 1   
    19    11    14 2   
    20    12    13 2   
    21    12    17 1   
    22    14    15 1   
    23    14    16 1   
    24    15    34 1   
    25    15    35 1   
    26    15    36 1   
    27    16    17 1   
    28    16    37 1   
    29    17    18 1   
    30    18    19 1   
    31    18    28 2   
    32    19    20 1   
    33    19    38 1   
    34    20    21 ar  
    35    20    27 ar  
    36    21    22 ar  
    37    21    39 1   
    38    22    23 ar  
    39    22    40 1   
    40    23    24 1   
    41    23    25 ar  
    42    25    26 1   
    43    25    27 ar  
    44    27    28 1   
@<TRIPOS>SUBSTRUCTURE
     1 AEV         1 TEMP              0 ****  ****    0 ROOT
