@<TRIPOS>MOLECULE
AEV
   40    44     1     0     0
SMALL
No Charge or Current Charge


@<TRIPOS>ATOM
      1 CAH          4.7180     2.5180    -0.8260 ca         1 AEV      -0.027000
      2 CAF          4.8560     2.2440    -2.2030 ca         1 AEV      -0.114000
      3 CAG          4.6990     0.9240    -2.6880 ca         1 AEV      -0.083000
      4 CAJ          4.4020    -0.1320    -1.8000 ca         1 AEV      -0.088000
      5 CAW          4.2680     0.1650    -0.4350 ca         1 AEV      -0.101300
      6 CAU          4.4230     1.4460     0.0290 ca         1 AEV      -0.173600
      7 CAP          4.2190     1.4340     1.4970 c          1 AEV       0.680700
      8 OAB          4.3160     2.3950     2.2460 o          1 AEV      -0.475000
      9 OAO          3.9570     0.1390     1.8990 os         1 AEV      -0.424100
     10 CBA          3.9570    -0.7420     0.7320 c5         1 AEV       0.303800
     11 CAX          2.5730    -1.2610     0.4280 cc         1 AEV      -0.279400
     12 CAS          1.3520    -0.4740     0.4060 c          1 AEV       0.585200
     13 OAC          1.2230     0.7180     0.6530 o          1 AEV      -0.447000
     14 CAQ          2.3280    -2.5710     0.0880 cd         1 AEV       0.135800
     15 CAA          3.2950    -3.7090    -0.0940 c3         1 AEV      -0.060900
     16 NAM          0.9590    -2.6910    -0.1510 na         1 AEV      -0.534200
     17 NBB          0.3510    -1.3790     0.0540 n          1 AEV      -0.195700
     18 CAV         -1.0240    -1.1320     0.0110 cc         1 AEV       0.494400
     19 NAL         -1.9640    -2.1430    -0.1700 na         1 AEV      -0.331600
     20 CAY         -3.1900    -1.5540    -0.1590 ca         1 AEV      -0.073200
     21 CAK         -4.4600    -2.1230    -0.3020 ca         1 AEV      -0.104000
     22 CAI         -5.5700    -1.2550    -0.2460 ca         1 AEV      -0.084000
     23 CAR         -5.3830     0.1350    -0.0520 ca         1 AEV       0.098000
     24 ClD         -6.8020     1.1820     0.0100 cl         1 AEV      -0.176000
     25 CAT         -4.0790     0.6710     0.0880 ca         1 AEV       0.172000
     26 ClE         -3.8170     2.4020     0.3320 cl         1 AEV      -0.136000
     27 CAZ         -2.9860    -0.2160     0.0290 ca         1 AEV       0.089400
     28 NAN         -1.6220     0.0680     0.1410 nd         1 AEV      -0.539100
     29 H1           4.8360     3.5290    -0.4410 ha         1 AEV       0.138000
     30 H2           5.0850     3.0510    -2.8940 ha         1 AEV       0.121000
     31 H3           4.8070     0.7210    -3.7510 ha         1 AEV       0.117000
     32 H4           4.2790    -1.1490    -2.1670 ha         1 AEV       0.118000
     33 H5           4.7040    -1.5380     0.8590 h1         1 AEV       0.080700
     34 H6           2.7830    -4.6240    -0.4140 hc         1 AEV       0.066367
     35 H7           4.0490    -3.4670    -0.8520 hc         1 AEV       0.066367
     36 H8           3.8170    -3.9320     0.8440 hc         1 AEV       0.066367
     37 H9           0.4700    -3.3810    -0.7250 hn         1 AEV       0.488000
     38 H10         -1.7650    -3.1310    -0.2450 hn         1 AEV       0.367000
     39 H11         -4.5890    -3.1930    -0.4500 ha         1 AEV       0.125000
     40 H12         -6.5760    -1.6550    -0.3530 ha         1 AEV       0.132000
@<TRIPOS>BOND
     1     1     2 ar  
     2     1     6 ar  
     3     1    29 1   
     4     2     3 ar  
     5     2    30 1   
     6     3     4 ar  
     7     3    31 1   
     8     4     5 ar  
     9     4    32 1   
    10     5     6 ar  
    11     5    10 1   
    12     6     7 1   
    13     7     8 2   
    14     7     9 1   
    15     9    10 1   
    16    10    11 1   
    17    10    33 1   
    18    11    12 1   
    19    11    14 2   
    20    12    13 2   
    21    12    17 1   
    22    14    15 1   
    23    14    16 1   
    24    15    34 1   
    25    15    35 1   
    26    15    36 1   
    27    16    17 1   
    28    16    37 1   
    29    17    18 1   
    30    18    19 1   
    31    18    28 2   
    32    19    20 1   
    33    19    38 1   
    34    20    21 ar  
    35    20    27 ar  
    36    21    22 ar  
    37    21    39 1   
    38    22    23 ar  
    39    22    40 1   
    40    23    24 1   
    41    23    25 ar  
    42    25    26 1   
    43    25    27 ar  
    44    27    28 1   
@<TRIPOS>SUBSTRUCTURE
     1 AEV         1 TEMP              0 ****  ****    0 ROOT
