@<TRIPOS>MOLECULE
AEW
   48    49     1     0     0
SMALL
No Charge or Current Charge


@<TRIPOS>ATOM
      1 CAV          9.2760    -0.7950    -0.2300 c3         1 AEW      -0.088100
      2 CAU          8.1590     0.2170     0.0880 c3         1 AEW      -0.075400
      3 CAT          6.7420    -0.3590    -0.1260 c3         1 AEW      -0.075400
      4 CAS          5.6220     0.6560     0.1930 c3         1 AEW      -0.076400
      5 CAR          4.2050     0.0800    -0.0210 c3         1 AEW      -0.072400
      6 CAQ          3.0840     1.0920     0.2970 c3         1 AEW      -0.044200
      7 CAM          1.7050     0.5180     0.0930 cc         1 AEW       0.018800
      8 CAH          0.9090     0.0570     1.1150 cd         1 AEW      -0.324200
      9 CAC         -0.4390    -0.5050     0.9180 c          1 AEW       0.550200
     10 OAA         -1.1110    -0.9060     1.8580 o          1 AEW      -0.553000
     11 CAN          1.1700     0.4370    -1.2330 cc         1 AEW      -0.300000
     12 CAI         -0.0850    -0.0810    -1.4660 cd         1 AEW      -0.030400
     13 NAD         -0.8840    -0.5440    -0.4220 n          1 AEW      -0.273000
     14 CAE         -2.2360    -1.0840    -0.7040 c3         1 AEW       0.133300
     15 CAF         -3.4060    -0.1190    -0.4420 ca         1 AEW      -0.053300
     16 CAG         -4.7200    -0.6090    -0.1970 ca         1 AEW      -0.128300
     17 CAB         -4.9880    -2.1240    -0.2120 c3         1 AEW      -0.044800
     18 CAJ         -3.1800     1.2760    -0.4560 ca         1 AEW      -0.137000
     19 CAO         -4.2240     2.1760    -0.2080 ca         1 AEW      -0.070000
     20 CAP         -5.5110     1.6930     0.0590 ca         1 AEW      -0.173000
     21 CAK         -5.7650     0.3150     0.0670 ca         1 AEW       0.287000
     22 NAL         -7.0460    -0.0950     0.3400 nv         1 AEW      -1.068000
     23 HAV1         9.1930    -1.6800     0.4130 hc         1 AEW       0.031700
     24 HAV2         9.2200    -1.1200    -1.2760 hc         1 AEW       0.031700
     25 HAV3        10.2610    -0.3420    -0.0640 hc         1 AEW       0.031700
     26 HAU1         8.2640     0.5490     1.1290 hc         1 AEW       0.036200
     27 HAU2         8.2910     1.1030    -0.5450 hc         1 AEW       0.036200
     28 HAT1         6.6420    -0.6910    -1.1670 hc         1 AEW       0.038700
     29 HAT2         6.6150    -1.2460     0.5070 hc         1 AEW       0.038700
     30 HAS1         5.7230     0.9880     1.2340 hc         1 AEW       0.037700
     31 HAS2         5.7500     1.5430    -0.4400 hc         1 AEW       0.037700
     32 HAR1         4.1050    -0.2540    -1.0610 hc         1 AEW       0.044700
     33 HAR2         4.0760    -0.8070     0.6130 hc         1 AEW       0.044700
     34 HAQ1         3.1930     1.4350     1.3340 hc         1 AEW       0.051200
     35 HAQ2         3.2100     1.9810    -0.3340 hc         1 AEW       0.051200
     36 HAH          1.2370     0.0800     2.1470 ha         1 AEW       0.207000
     37 HAN          1.7740     0.7930    -2.0650 ha         1 AEW       0.198000
     38 HAI         -0.5400    -0.1610    -2.4510 h4         1 AEW       0.198000
     39 HAE1        -2.2810    -1.4060    -1.7520 h1         1 AEW       0.069700
     40 HAE2        -2.3630    -1.9890    -0.0960 h1         1 AEW       0.069700
     41 HAJ         -2.1900     1.6760    -0.6580 ha         1 AEW       0.117000
     42 HAB1        -4.6650    -2.5850     0.7290 hc         1 AEW       0.039367
     43 HAB2        -6.0440    -2.3740    -0.3570 hc         1 AEW       0.039367
     44 HAB3        -4.4510    -2.6200    -1.0300 hc         1 AEW       0.039367
     45 HAO         -4.0340     3.2470    -0.2170 ha         1 AEW       0.112000
     46 HAP         -6.3140     2.3980     0.2580 ha         1 AEW       0.111000
     47 HAL1        -7.2950    -1.0770     0.2550 hn         1 AEW       0.443000
     48 HAL2        -7.7990     0.5860     0.4110 hn         1 AEW       0.443000
@<TRIPOS>BOND
     1     1     2 1   
     2     1    23 1   
     3     1    24 1   
     4     1    25 1   
     5     2     3 1   
     6     2    26 1   
     7     2    27 1   
     8     3     4 1   
     9     3    28 1   
    10     3    29 1   
    11     4     5 1   
    12     4    30 1   
    13     4    31 1   
    14     5     6 1   
    15     5    32 1   
    16     5    33 1   
    17     6     7 1   
    18     6    34 1   
    19     6    35 1   
    20     7     8 2   
    21     7    11 1   
    22     8     9 1   
    23     8    36 1   
    24     9    10 2   
    25     9    13 1   
    26    11    12 2   
    27    11    37 1   
    28    12    13 1   
    29    12    38 1   
    30    13    14 1   
    31    14    15 1   
    32    14    39 1   
    33    14    40 1   
    34    15    16 ar  
    35    15    18 ar  
    36    16    17 1   
    37    16    21 ar  
    38    17    42 1   
    39    17    43 1   
    40    17    44 1   
    41    18    19 ar  
    42    18    41 1   
    43    19    20 ar  
    44    19    45 1   
    45    20    21 ar  
    46    20    46 1   
    47    21    22 1   
    48    22    47 1   
    49    22    48 1   
@<TRIPOS>SUBSTRUCTURE
     1 AEW         1 TEMP              0 ****  ****    0 ROOT
