@<TRIPOS>MOLECULE
AEW
   48    49     1     0     0
SMALL
abcg2


@<TRIPOS>ATOM
      1 CAV          9.1440    -0.7630    -0.0370 c3         1 AEW      -0.088100
      2 CAU          8.0310     0.2740     0.0010 c3         1 AEW      -0.075400
      3 CAT          6.6400    -0.3470    -0.0600 c3         1 AEW      -0.075400
      4 CAS          5.5230     0.6870    -0.0100 c3         1 AEW      -0.076400
      5 CAR          4.1310     0.0730    -0.0830 c3         1 AEW      -0.072400
      6 CAQ          3.0290     1.1300     0.0290 c3         1 AEW      -0.044200
      7 CAM          1.6600     0.5310    -0.0880 cc         1 AEW       0.018800
      8 CAH          0.9800     0.0980     1.0120 cd         1 AEW      -0.324200
      9 CAC         -0.3190    -0.5070     0.9350 c          1 AEW       0.550200
     10 OAA         -0.9660    -0.9110     1.9000 o          1 AEW      -0.553000
     11 CAN          1.0630     0.3740    -1.3660 cc         1 AEW      -0.300000
     12 CAI         -0.1690    -0.1830    -1.4480 cd         1 AEW      -0.030400
     13 NAD         -0.8440    -0.6090    -0.3510 n          1 AEW      -0.273000
     14 CAE         -2.1820    -1.1560    -0.5010 c3         1 AEW       0.133300
     15 CAF         -3.2840    -0.1620    -0.2000 ca         1 AEW      -0.053300
     16 CAG         -4.6100    -0.6050    -0.1930 ca         1 AEW      -0.128300
     17 CAB         -4.9910    -2.0330    -0.4730 c3         1 AEW      -0.044800
     18 CAJ         -2.9880     1.1750     0.0510 ca         1 AEW      -0.137000
     19 CAO         -4.0110     2.0730     0.3200 ca         1 AEW      -0.070000
     20 CAP         -5.3270     1.6520     0.3380 ca         1 AEW      -0.173000
     21 CAK         -5.6410     0.3130     0.0820 ca         1 AEW       0.287000
     22 NAL         -6.9540    -0.1140     0.1580 nv         1 AEW      -1.068000
     23 HAV1         9.0690    -1.4520     0.8070 hc         1 AEW       0.031700
     24 HAV2         9.0980    -1.3580    -0.9520 hc         1 AEW       0.031700
     25 HAV3        10.1300    -0.2980     0.0030 hc         1 AEW       0.031700
     26 HAU1         8.1180     0.8750     0.9110 hc         1 AEW       0.036200
     27 HAU2         8.1510     0.9730    -0.8340 hc         1 AEW       0.036200
     28 HAT1         6.5480    -0.9410    -0.9760 hc         1 AEW       0.038700
     29 HAT2         6.5210    -1.0510     0.7710 hc         1 AEW       0.038700
     30 HAS1         5.6120     1.2730     0.9120 hc         1 AEW       0.037700
     31 HAS2         5.6470     1.3980    -0.8330 hc         1 AEW       0.037700
     32 HAR1         4.0220    -0.4780    -1.0230 hc         1 AEW       0.044700
     33 HAR2         4.0060    -0.6600     0.7210 hc         1 AEW       0.044700
     34 HAQ1         3.1250     1.6460     0.9870 hc         1 AEW       0.051200
     35 HAQ2         3.1680     1.8790    -0.7550 hc         1 AEW       0.051200
     36 HAH          1.4040     0.2090     2.0020 ha         1 AEW       0.207000
     37 HAN          1.5640     0.6980    -2.2660 ha         1 AEW       0.198000
     38 HAI         -0.6750    -0.3160    -2.3940 h4         1 AEW       0.198000
     39 HAE1        -2.2730    -1.5190    -1.5250 h1         1 AEW       0.069700
     40 HAE2        -2.2640    -2.0260     0.1490 h1         1 AEW       0.069700
     41 HAJ         -1.9660     1.5310     0.0400 ha         1 AEW       0.117000
     42 HAB1        -5.5560    -2.4620     0.3570 hc         1 AEW       0.039367
     43 HAB2        -5.6270    -2.1080    -1.3590 hc         1 AEW       0.039367
     44 HAB3        -4.1360    -2.6800    -0.6500 hc         1 AEW       0.039367
     45 HAO         -3.7780     3.1120     0.5140 ha         1 AEW       0.112000
     46 HAP         -6.1240     2.3580     0.5440 ha         1 AEW       0.111000
     47 HAL1        -7.2060    -0.8880    -0.4360 hn         1 AEW       0.443000
     48 HAL2        -7.6420     0.6210     0.0970 hn         1 AEW       0.443000
@<TRIPOS>BOND
     1     1     2 1   
     2     1    23 1   
     3     1    24 1   
     4     1    25 1   
     5     2     3 1   
     6     2    26 1   
     7     2    27 1   
     8     3     4 1   
     9     3    28 1   
    10     3    29 1   
    11     4     5 1   
    12     4    30 1   
    13     4    31 1   
    14     5     6 1   
    15     5    32 1   
    16     5    33 1   
    17     6     7 1   
    18     6    34 1   
    19     6    35 1   
    20     7     8 2   
    21     7    11 1   
    22     8     9 1   
    23     8    36 1   
    24     9    10 2   
    25     9    13 1   
    26    11    12 2   
    27    11    37 1   
    28    12    13 1   
    29    12    38 1   
    30    13    14 1   
    31    14    15 1   
    32    14    39 1   
    33    14    40 1   
    34    15    16 ar  
    35    15    18 ar  
    36    16    17 1   
    37    16    21 ar  
    38    17    42 1   
    39    17    43 1   
    40    17    44 1   
    41    18    19 ar  
    42    18    41 1   
    43    19    20 ar  
    44    19    45 1   
    45    20    21 ar  
    46    20    46 1   
    47    21    22 1   
    48    22    47 1   
    49    22    48 1   
@<TRIPOS>SUBSTRUCTURE
     1 AEW         1 TEMP              0 ****  ****    0 ROOT
