@<TRIPOS>MOLECULE
AEX
   35    37     1     0     0
SMALL
No Charge or Current Charge


@<TRIPOS>ATOM
      1 C10        -17.9610   -63.1830    39.1300 ca         1 AEX       0.368900
      2 C13        -16.2580   -64.7830    37.6080 ca         1 AEX      -0.180000
      3 C15        -16.7020   -64.3830    34.6140 c3         1 AEX       0.214800
      4 C17        -18.6630   -64.2130    32.9230 c3         1 AEX      -0.075400
      5 C01        -13.7980   -67.2260    40.8410 ca         1 AEX      -0.157000
      6 C02        -14.2000   -66.8720    42.1540 ca         1 AEX      -0.068000
      7 C03        -15.2100   -65.9060    42.3610 ca         1 AEX      -0.154000
      8 C04        -15.7850   -65.3270    41.2260 ca         1 AEX       0.016800
      9 C05        -15.4030   -65.6610    39.9280 cp         1 AEX      -0.112000
     10 C06        -14.3970   -66.6220    39.7120 ca         1 AEX      -0.038000
     11 C07        -16.2050   -64.8680    39.0080 cp         1 AEX      -0.010000
     12 C08        -17.0600   -64.0650    39.7480 ca         1 AEX      -0.114200
     13 N09        -16.7920   -64.3560    41.1000 na         1 AEX      -0.228600
     14 N11        -18.0200   -63.0930    37.7750 nb         1 AEX      -0.721000
     15 C12        -17.1900   -63.8740    37.0600 ca         1 AEX       0.568900
     16 N14        -17.3590   -63.6760    35.7180 nu         1 AEX      -0.915100
     17 C16        -17.1920   -63.8570    33.2470 c3         1 AEX      -0.086400
     18 C18        -19.1120   -63.7130    31.5360 c3         1 AEX      -0.091100
     19 H101       -18.6340   -62.5510    39.7080 h4         1 AEX       0.018100
     20 H131       -15.6120   -65.3860    36.9800 ha         1 AEX       0.126000
     21 H151       -16.8980   -65.4620    34.6820 h1         1 AEX       0.036200
     22 H152       -15.6160   -64.2340    34.6810 h1         1 AEX       0.036200
     23 H172       -19.3250   -63.7830    33.6840 hc         1 AEX       0.046200
     24 H171       -18.7910   -65.3020    32.9680 hc         1 AEX       0.046200
     25 H011       -13.0190   -67.9710    40.7000 ha         1 AEX       0.114000
     26 H021       -13.7270   -67.3480    43.0100 ha         1 AEX       0.111000
     27 H031       -15.5280   -65.6260    43.3620 ha         1 AEX       0.116000
     28 H061       -14.0910   -66.8910    38.7040 ha         1 AEX       0.115000
     29 H091       -17.2640   -63.9220    41.8870 hn         1 AEX       0.354000
     30 H141       -18.0860   -63.0010    35.4990 hn         1 AEX       0.480000
     31 H162       -16.5490   -64.2870    32.4680 hc         1 AEX       0.043200
     32 H161       -17.0530   -62.7700    33.2020 hc         1 AEX       0.043200
     33 H181       -20.1570   -63.9880    31.3500 hc         1 AEX       0.032033
     34 H183       -19.0270   -62.6210    31.4710 hc         1 AEX       0.032033
     35 H182       -18.4950   -64.1560    30.7450 hc         1 AEX       0.032033
@<TRIPOS>BOND
     1     1    12 ar  
     2     1    14 ar  
     3     1    19 1   
     4     2    11 ar  
     5     2    15 ar  
     6     2    20 1   
     7     3    16 1   
     8     3    17 1   
     9     3    21 1   
    10     3    22 1   
    11     4    17 1   
    12     4    18 1   
    13     4    23 1   
    14     4    24 1   
    15     5     6 ar  
    16     5    10 ar  
    17     5    25 1   
    18     6     7 ar  
    19     6    26 1   
    20     7     8 ar  
    21     7    27 1   
    22     8     9 ar  
    23     8    13 1   
    24     9    10 ar  
    25     9    11 1   
    26    10    28 1   
    27    11    12 ar  
    28    12    13 1   
    29    13    29 1   
    30    14    15 ar  
    31    15    16 1   
    32    16    30 1   
    33    17    31 1   
    34    17    32 1   
    35    18    33 1   
    36    18    34 1   
    37    18    35 1   
@<TRIPOS>SUBSTRUCTURE
     1 AEX         1 TEMP              0 ****  ****    0 ROOT
