@<TRIPOS>MOLECULE
AEX
   35    37     1     0     0
SMALL
abcg2


@<TRIPOS>ATOM
      1 C10        -17.8920   -63.0970    39.2370 ca         1 AEX       0.368900
      2 C13        -16.4350   -64.7560    37.5780 ca         1 AEX      -0.180000
      3 C15        -16.7370   -64.1860    34.7520 c3         1 AEX       0.214800
      4 C17        -18.5720   -64.3310    32.9770 c3         1 AEX      -0.075400
      5 C01        -13.9290   -67.3020    40.6600 ca         1 AEX      -0.157000
      6 C02        -14.2360   -66.9030    41.9700 ca         1 AEX      -0.068000
      7 C03        -15.1520   -65.9010    42.2300 ca         1 AEX      -0.154000
      8 C04        -15.7710   -65.2920    41.1390 ca         1 AEX       0.016800
      9 C05        -15.4720   -65.6830    39.8150 cp         1 AEX      -0.112000
     10 C06        -14.5440   -66.6960    39.5810 ca         1 AEX      -0.038000
     11 C07        -16.2780   -64.8590    38.9540 cp         1 AEX      -0.010000
     12 C08        -17.0210   -64.0160    39.7990 ca         1 AEX      -0.114200
     13 N09        -16.7020   -64.2930    41.1100 na         1 AEX      -0.228600
     14 N11        -18.0440   -63.0050    37.9280 nb         1 AEX      -0.721000
     15 C12        -17.3470   -63.8070    37.1060 ca         1 AEX       0.568900
     16 N14        -17.6120   -63.6490    35.7680 nu         1 AEX      -0.915100
     17 C16        -17.2010   -63.7880    33.3600 c3         1 AEX      -0.086400
     18 C18        -18.9600   -63.9660    31.5510 c3         1 AEX      -0.091100
     19 H101       -18.4780   -62.4210    39.8530 h4         1 AEX       0.018100
     20 H131       -15.8720   -65.3890    36.9060 ha         1 AEX       0.126000
     21 H151       -16.7280   -65.2780    34.8220 h1         1 AEX       0.036200
     22 H152       -15.6990   -63.8560    34.9000 h1         1 AEX       0.036200
     23 H172       -19.3300   -63.9550    33.6680 hc         1 AEX       0.046200
     24 H171       -18.5710   -65.4200    33.0910 hc         1 AEX       0.046200
     25 H011       -13.2070   -68.0910    40.5000 ha         1 AEX       0.114000
     26 H021       -13.7420   -67.3910    42.8000 ha         1 AEX       0.111000
     27 H031       -15.3800   -65.6020    43.2450 ha         1 AEX       0.116000
     28 H061       -14.3100   -67.0020    38.5690 ha         1 AEX       0.115000
     29 H091       -17.0860   -63.8290    41.9160 hn         1 AEX       0.354000
     30 H141       -18.0410   -62.7620    35.5480 hn         1 AEX       0.480000
     31 H162       -16.4560   -64.1500    32.6470 hc         1 AEX       0.043200
     32 H161       -17.1960   -62.6950    33.2720 hc         1 AEX       0.043200
     33 H181       -19.9420   -64.3610    31.2910 hc         1 AEX       0.032033
     34 H183       -18.9930   -62.8830    31.4180 hc         1 AEX       0.032033
     35 H182       -18.2420   -64.3630    30.8320 hc         1 AEX       0.032033
@<TRIPOS>BOND
     1     1    12 ar  
     2     1    14 ar  
     3     1    19 1   
     4     2    11 ar  
     5     2    15 ar  
     6     2    20 1   
     7     3    16 1   
     8     3    17 1   
     9     3    21 1   
    10     3    22 1   
    11     4    17 1   
    12     4    18 1   
    13     4    23 1   
    14     4    24 1   
    15     5     6 ar  
    16     5    10 ar  
    17     5    25 1   
    18     6     7 ar  
    19     6    26 1   
    20     7     8 ar  
    21     7    27 1   
    22     8     9 ar  
    23     8    13 1   
    24     9    10 ar  
    25     9    11 1   
    26    10    28 1   
    27    11    12 ar  
    28    12    13 1   
    29    13    29 1   
    30    14    15 ar  
    31    15    16 1   
    32    16    30 1   
    33    17    31 1   
    34    17    32 1   
    35    18    33 1   
    36    18    34 1   
    37    18    35 1   
@<TRIPOS>SUBSTRUCTURE
     1 AEX         1 TEMP              0 ****  ****    0 ROOT
