@<TRIPOS>MOLECULE
AEZ
   26    27     1     0     0
SMALL
bcc


@<TRIPOS>ATOM
      1 C4          -0.6220    -1.3870    -0.2970 c6         1 AEZ       0.161100
      2 C5           0.7490    -1.0210     0.2830 c6         1 AEZ       0.013600
      3 C6           1.8640    -1.8180    -0.3820 c3         1 AEZ       0.140400
      4 C7           0.9090     0.4520     0.1180 cc         1 AEZ      -0.198900
      5 C10          1.7090     2.4860    -0.0060 cc         1 AEZ       0.393400
      6 C3          -1.7160    -0.4290     0.1990 c6         1 AEZ       0.113100
      7 C1          -0.0800     1.3530    -0.1500 cd         1 AEZ       0.252600
      8 C2          -1.5100     0.9820    -0.3490 c6         1 AEZ       0.111800
      9 O2          -2.3980     1.8450     0.3270 oh         1 AEZ      -0.601800
     10 O4          -0.9100    -2.7090     0.0810 oh         1 AEZ      -0.601800
     11 O3          -2.9510    -0.9690    -0.2140 oh         1 AEZ      -0.611800
     12 O6           3.0800    -1.4910     0.2590 oh         1 AEZ      -0.620800
     13 N8           0.4250     2.6190    -0.2300 nd         1 AEZ      -0.671000
     14 N9           2.0480     1.1980     0.2080 na         1 AEZ      -0.275900
     15 H1          -0.5640    -1.2990    -1.3950 h1         1 AEZ       0.043700
     16 H2           0.7390    -1.2730     1.3520 hc         1 AEZ       0.089700
     17 H3           1.6500    -2.8880    -0.2960 h1         1 AEZ       0.038200
     18 H4           1.8920    -1.5720    -1.4520 h1         1 AEZ       0.038200
     19 H5           2.4360     3.2830     0.0110 h5         1 AEZ       0.057100
     20 H6          -1.6560    -0.3830     1.2970 h1         1 AEZ       0.060700
     21 H7          -1.7430     0.9670    -1.4250 h1         1 AEZ       0.053700
     22 H8          -2.2520     2.7370    -0.0050 ho         1 AEZ       0.428000
     23 H9          -1.8180    -2.8950    -0.1820 ho         1 AEZ       0.430000
     24 H10         -3.6470    -0.6140     0.3450 ho         1 AEZ       0.427000
     25 H11          3.7980    -1.9190    -0.2160 ho         1 AEZ       0.411000
     26 H12          2.9740     0.8370     0.3810 hn         1 AEZ       0.319700
@<TRIPOS>BOND
     1     1     2 1   
     2     1     6 1   
     3     1    10 1   
     4     1    15 1   
     5     2     3 1   
     6     2     4 1   
     7     2    16 1   
     8     3    12 1   
     9     3    17 1   
    10     3    18 1   
    11     4     7 2   
    12     4    14 1   
    13     5    13 2   
    14     5    14 1   
    15     5    19 1   
    16     6     8 1   
    17     6    11 1   
    18     6    20 1   
    19     7     8 1   
    20     7    13 1   
    21     8     9 1   
    22     8    21 1   
    23     9    22 1   
    24    10    23 1   
    25    11    24 1   
    26    12    25 1   
    27    14    26 1   
@<TRIPOS>SUBSTRUCTURE
     1 AEZ         1 TEMP              0 ****  ****    0 ROOT
