@<TRIPOS>MOLECULE
AEZ
   26    27     1     0     0
SMALL
No Charge or Current Charge


@<TRIPOS>ATOM
      1 C4          -0.6320    -1.4830    -0.2500 c6         1 AEZ       0.184300
      2 C5           0.7760    -1.0280     0.2610 c6         1 AEZ       0.013600
      3 C6           1.9210    -1.8050    -0.4610 c3         1 AEZ       0.163600
      4 C7           0.9110     0.4800     0.1100 cc         1 AEZ      -0.184300
      5 C10          1.6480     2.5800     0.0930 cc         1 AEZ       0.393400
      6 C3          -1.7520    -0.5030     0.2260 c6         1 AEZ       0.136300
      7 C1          -0.1070     1.3520    -0.1710 cd         1 AEZ       0.187300
      8 C2          -1.5410     0.9060    -0.4080 c6         1 AEZ       0.135000
      9 O2          -2.4830     1.8580     0.1210 oh         1 AEZ      -0.724000
     10 O4          -0.9500    -2.8050     0.2080 oh         1 AEZ      -0.724000
     11 O3          -3.0560    -1.0150    -0.1150 oh         1 AEZ      -0.674000
     12 O6           3.2170    -1.5280     0.0990 oh         1 AEZ      -0.683000
     13 N8           0.3490     2.6560    -0.1750 nd         1 AEZ      -0.671000
     14 N9           2.0260     1.2700     0.2790 na         1 AEZ      -0.275500
     15 H1          -0.6210    -1.4660    -1.3510 h1         1 AEZ       0.043700
     16 H2           0.8520    -1.2870     1.3260 hc         1 AEZ       0.089700
     17 H3           1.7100    -2.8810    -0.3880 h1         1 AEZ       0.038200
     18 H4           1.9030    -1.5400    -1.5270 h1         1 AEZ       0.038200
     19 H5           2.3450     3.4060     0.1700 h5         1 AEZ       0.057100
     20 H6          -1.6690    -0.3980     1.3180 h1         1 AEZ       0.060700
     21 H7          -1.6820     0.8150    -1.4960 h1         1 AEZ       0.053700
     22 H8          -1.9870     2.7140     0.1360 ho         1 AEZ       0.527000
     23 H9          -1.9400    -2.8220     0.1900 ho         1 AEZ       0.529000
     24 H10         -3.6590    -0.2380    -0.0500 ho         1 AEZ       0.466000
     25 H11          3.8630    -2.0970    -0.3780 ho         1 AEZ       0.450000
     26 H12          2.9630     0.9520     0.4960 hn         1 AEZ       0.370000
@<TRIPOS>BOND
     1     1     2 1   
     2     1     6 1   
     3     1    10 1   
     4     1    15 1   
     5     2     3 1   
     6     2     4 1   
     7     2    16 1   
     8     3    12 1   
     9     3    17 1   
    10     3    18 1   
    11     4     7 2   
    12     4    14 1   
    13     5    13 2   
    14     5    14 1   
    15     5    19 1   
    16     6     8 1   
    17     6    11 1   
    18     6    20 1   
    19     7     8 1   
    20     7    13 1   
    21     8     9 1   
    22     8    21 1   
    23     9    22 1   
    24    10    23 1   
    25    11    24 1   
    26    12    25 1   
    27    14    26 1   
@<TRIPOS>SUBSTRUCTURE
     1 AEZ         1 TEMP              0 ****  ****    0 ROOT
