@<TRIPOS>MOLECULE
AF0
   50    52     1     0     0
SMALL
bcc


@<TRIPOS>ATOM
      1 C1           2.8050     0.1730     0.4690 ca         1 AF0      -0.121300
      2 C2           2.7690    -1.2050     0.3230 ca         1 AF0       0.132400
      3 C3           4.0550     0.7550     0.6160 ca         1 AF0       0.132400
      4 C4           1.5610     0.9940     0.4380 c3         1 AF0      -0.167300
      5 C5           3.9250    -1.9610     0.3380 ca         1 AF0       0.102900
      6 C6           5.1770    -1.3870     0.4930 ca         1 AF0      -0.093300
      7 C7           5.2070    -0.0080     0.6320 ca         1 AF0       0.102900
      8 C8          -4.6700    -2.6600    -0.3510 c3         1 AF0      -0.096400
      9 C9          -5.4860    -1.4000    -0.6030 c3         1 AF0       0.088000
     10 C10         -1.4210     1.6500    -0.8550 ca         1 AF0       0.063600
     11 C11         -2.0710     0.8480    -1.7790 ca         1 AF0      -0.062000
     12 C12         -1.9740     1.8120     0.4100 ca         1 AF0      -0.123000
     13 C13         -3.1590     1.1890     0.7590 ca         1 AF0      -0.116300
     14 C14         -3.8200     0.3810    -0.1750 ca         1 AF0       0.094600
     15 C15         -3.7630     1.3400     2.1190 c6         1 AF0      -0.026100
     16 C16         -3.2550     0.2140    -1.4390 ca         1 AF0      -0.159000
     17 C17          6.4280    -2.2080     0.4910 c3         1 AF0      -0.046800
     18 C18         -5.2740     1.3670     1.9860 c6         1 AF0      -0.159400
     19 C19         -5.7820     0.1610     1.2420 c          1 AF0       0.712500
     20 C20         -5.1870    -3.8270    -1.1810 c3         1 AF0      -0.089100
     21 F1           3.8190    -3.2840     0.1950 f          1 AF0      -0.113900
     22 F2           1.5980    -1.8240     0.1860 f          1 AF0      -0.104900
     23 F3           4.1570     2.0740     0.7660 f          1 AF0      -0.104900
     24 F4           6.3770     0.6150     0.7820 f          1 AF0      -0.113900
     25 N1          -5.0230    -0.2580     0.1790 n          1 AF0      -0.382000
     26 N2          -0.2180     2.3160    -1.2120 nu         1 AF0      -0.685500
     27 O1           2.2220     2.4120    -1.7000 o          1 AF0      -0.582800
     28 O2          -6.8200    -0.3980     1.5520 o          1 AF0      -0.610500
     29 O3           0.9720     0.2560    -2.0250 o          1 AF0      -0.582800
     30 S            1.2040     1.4720    -1.2680 s6         1 AF0       1.208900
     31 H1           0.6980     0.4430     0.8120 h1         1 AF0       0.109700
     32 H2           1.6510     1.9130     1.0160 h1         1 AF0       0.109700
     33 H3          -3.6150    -2.4850    -0.5800 hc         1 AF0       0.050200
     34 H4          -4.7210    -2.9060     0.7130 hc         1 AF0       0.050200
     35 H5          -5.4870    -1.1410    -1.6630 h1         1 AF0       0.064200
     36 H6          -6.5250    -1.5770    -0.3390 h1         1 AF0       0.064200
     37 H7          -1.6710     0.7250    -2.7750 ha         1 AF0       0.163000
     38 H8          -1.4720     2.4350     1.1420 ha         1 AF0       0.130000
     39 H9          -3.4610     0.5010     2.7550 hc         1 AF0       0.060200
     40 H10         -3.4040     2.2470     2.6040 hc         1 AF0       0.060200
     41 H11         -3.7310    -0.3990    -2.1890 ha         1 AF0       0.149000
     42 H12          6.8200    -2.3040    -0.5230 hc         1 AF0       0.061700
     43 H13          7.2030    -1.7540     1.1040 hc         1 AF0       0.061700
     44 H14          6.2470    -3.2100     0.8720 hc         1 AF0       0.061700
     45 H15         -5.7630     1.3990     2.9580 hc         1 AF0       0.079700
     46 H16         -5.5850     2.2620     1.4360 hc         1 AF0       0.079700
     47 H17         -6.2400    -4.0240    -0.9720 hc         1 AF0       0.036367
     48 H18         -5.0940    -3.6280    -2.2500 hc         1 AF0       0.036367
     49 H19         -4.6290    -4.7380    -0.9650 hc         1 AF0       0.036367
     50 H20         -0.0980     3.2450    -0.8230 hn         1 AF0       0.437800
@<TRIPOS>BOND
     1     1     2 ar  
     2     1     3 ar  
     3     1     4 1   
     4     2     5 ar  
     5     2    22 1   
     6     3     7 ar  
     7     3    23 1   
     8     4    30 1   
     9     4    31 1   
    10     4    32 1   
    11     5     6 ar  
    12     5    21 1   
    13     6     7 ar  
    14     6    17 1   
    15     7    24 1   
    16     8     9 1   
    17     8    20 1   
    18     8    33 1   
    19     8    34 1   
    20     9    25 1   
    21     9    35 1   
    22     9    36 1   
    23    10    11 ar  
    24    10    12 ar  
    25    10    26 1   
    26    11    16 ar  
    27    11    37 1   
    28    12    13 ar  
    29    12    38 1   
    30    13    14 ar  
    31    13    15 1   
    32    14    16 ar  
    33    14    25 1   
    34    15    18 1   
    35    15    39 1   
    36    15    40 1   
    37    16    41 1   
    38    17    42 1   
    39    17    43 1   
    40    17    44 1   
    41    18    19 1   
    42    18    45 1   
    43    18    46 1   
    44    19    25 1   
    45    19    28 2   
    46    20    47 1   
    47    20    48 1   
    48    20    49 1   
    49    26    30 1   
    50    26    50 1   
    51    27    30 2   
    52    29    30 2   
@<TRIPOS>SUBSTRUCTURE
     1 AF0         1 TEMP              0 ****  ****    0 ROOT
