@<TRIPOS>MOLECULE
AF0
   50    52     1     0     0
SMALL
No Charge or Current Charge


@<TRIPOS>ATOM
      1 C1           2.9940    -0.2810     0.2480 ca         1 AF0      -0.121300
      2 C2           3.1190    -1.2950    -0.7260 ca         1 AF0       0.167500
      3 C3           4.1360     0.0780     0.9960 ca         1 AF0       0.167500
      4 C4           1.6460     0.4210     0.4810 c3         1 AF0      -0.278100
      5 C5           4.3550    -1.9360    -0.9460 ca         1 AF0       0.138000
      6 C6           5.4950    -1.5800    -0.1940 ca         1 AF0      -0.093300
      7 C7           5.3720    -0.5620     0.7770 ca         1 AF0       0.138000
      8 C8          -4.7320    -2.6230     0.4550 c3         1 AF0      -0.096400
      9 C9          -5.3540    -1.6220    -0.5430 c3         1 AF0       0.088000
     10 C10         -1.3640     1.7380    -0.1580 ca         1 AF0       0.202000
     11 C11         -1.5980     0.6080    -0.9650 ca         1 AF0      -0.044000
     12 C12         -2.4130     2.2220     0.6390 ca         1 AF0      -0.105000
     13 C13         -3.6640     1.5760     0.6620 ca         1 AF0      -0.116300
     14 C14         -3.8740     0.3890    -0.0770 ca         1 AF0       0.002000
     15 C15         -4.7920     2.1550     1.5110 c6         1 AF0      -0.026100
     16 C16         -2.8430    -0.0450    -0.9410 ca         1 AF0      -0.141000
     17 C17          6.8380    -2.2730    -0.4340 c3         1 AF0      -0.046800
     18 C18         -6.1470     1.9320     0.8180 c6         1 AF0      -0.159400
     19 C19         -6.3320     0.4690     0.4090 c          1 AF0       0.570000
     20 C20         -4.9010    -4.0910     0.0170 c3         1 AF0      -0.089100
     21 F1           4.4440    -2.9000    -1.8940 f          1 AF0      -0.149000
     22 F2           2.0410    -1.6600    -1.4610 f          1 AF0      -0.140000
     23 F3           4.0480     1.0490     1.9360 f          1 AF0      -0.140000
     24 F4           6.4520    -0.1890     1.5050 f          1 AF0      -0.149000
     25 N1          -5.1990    -0.2030    -0.1200 n          1 AF0      -0.222400
     26 N2          -0.1430     2.4210    -0.1370 nu         1 AF0      -0.879100
     27 O1           2.2790     2.9520    -0.0730 o          1 AF0      -0.512000
     28 O2          -7.4190    -0.0750     0.5620 o          1 AF0      -0.535000
     29 O3           1.3410     1.5150    -1.9460 o          1 AF0      -0.512000
     30 S            1.3840     1.8880    -0.5310 s6         1 AF0       1.178100
     31 H1           0.8130    -0.2530     0.2570 h1         1 AF0       0.109700
     32 H2           1.5490     0.7540     1.5200 h1         1 AF0       0.109700
     33 H3          -3.6630    -2.4090     0.5740 hc         1 AF0       0.050200
     34 H4          -5.1970    -2.4860     1.4380 hc         1 AF0       0.050200
     35 H5          -4.9060    -1.7580    -1.5340 h1         1 AF0       0.064200
     36 H6          -6.4170    -1.8680    -0.6660 h1         1 AF0       0.064200
     37 H7          -0.8270     0.2300    -1.6290 ha         1 AF0       0.145000
     38 H8          -2.2590     3.1140     1.2400 ha         1 AF0       0.112000
     39 H9          -4.7920     1.6720     2.4980 hc         1 AF0       0.060200
     40 H10         -4.6370     3.2290     1.6860 hc         1 AF0       0.060200
     41 H11         -2.9790    -0.8970    -1.5990 ha         1 AF0       0.131000
     42 H12          7.4180    -1.7430    -1.1990 hc         1 AF0       0.061700
     43 H13          7.4460    -2.3130     0.4770 hc         1 AF0       0.061700
     44 H14          6.7090    -3.3080    -0.7720 hc         1 AF0       0.061700
     45 H15         -7.0030     2.2850     1.4080 hc         1 AF0       0.079700
     46 H16         -6.1030     2.5040    -0.1170 hc         1 AF0       0.079700
     47 H17         -5.9630    -4.3500    -0.0750 hc         1 AF0       0.036367
     48 H18         -4.4160    -4.2660    -0.9510 hc         1 AF0       0.036367
     49 H19         -4.4470    -4.7650     0.7540 hc         1 AF0       0.036367
     50 H20         -0.0170     3.1640     0.5390 hn         1 AF0       0.493000
@<TRIPOS>BOND
     1     1     2 ar  
     2     1     3 ar  
     3     1     4 1   
     4     2     5 ar  
     5     2    22 1   
     6     3     7 ar  
     7     3    23 1   
     8     4    30 1   
     9     4    31 1   
    10     4    32 1   
    11     5     6 ar  
    12     5    21 1   
    13     6     7 ar  
    14     6    17 1   
    15     7    24 1   
    16     8     9 1   
    17     8    20 1   
    18     8    33 1   
    19     8    34 1   
    20     9    25 1   
    21     9    35 1   
    22     9    36 1   
    23    10    11 ar  
    24    10    12 ar  
    25    10    26 1   
    26    11    16 ar  
    27    11    37 1   
    28    12    13 ar  
    29    12    38 1   
    30    13    14 ar  
    31    13    15 1   
    32    14    16 ar  
    33    14    25 1   
    34    15    18 1   
    35    15    39 1   
    36    15    40 1   
    37    16    41 1   
    38    17    42 1   
    39    17    43 1   
    40    17    44 1   
    41    18    19 1   
    42    18    45 1   
    43    18    46 1   
    44    19    25 1   
    45    19    28 2   
    46    20    47 1   
    47    20    48 1   
    48    20    49 1   
    49    26    30 1   
    50    26    50 1   
    51    27    30 2   
    52    29    30 2   
@<TRIPOS>SUBSTRUCTURE
     1 AF0         1 TEMP              0 ****  ****    0 ROOT
