@<TRIPOS>MOLECULE
AF1
   45    46     1     0     0
SMALL
No Charge or Current Charge


@<TRIPOS>ATOM
      1 C1           4.3550     0.4180    -0.3180 c6         1 AF1       0.367300
      2 C2           3.6820    -0.4710     0.7720 c6         1 AF1       0.104300
      3 C3           2.3580    -1.0500     0.1990 c6         1 AF1       0.182300
      4 C4           1.4220     0.1090    -0.3170 c6         1 AF1       0.156500
      5 C5           2.2460     1.0240    -1.2950 c6         1 AF1       0.169300
      6 C6           1.4810     2.3050    -1.7180 c3         1 AF1      -0.095100
      7 O1           5.5010     1.0640     0.1930 oh         1 AF1      -0.706000
      8 O2           4.5510    -1.5390     1.2270 oh         1 AF1      -0.726000
      9 O3           1.7560    -1.8660     1.2220 oh         1 AF1      -0.709000
     10 O5           3.4750     1.4760    -0.6810 os         1 AF1      -0.487000
     11 N4           0.1770    -0.3970    -0.9930 n7         1 AF1      -0.872400
     12 C1H         -0.9800    -0.7190    -0.1080 c6         1 AF1       0.223700
     13 C2H         -2.0500    -1.6050    -0.8500 c6         1 AF1       0.192300
     14 C3H         -3.3590    -1.6770     0.0020 c6         1 AF1       0.128300
     15 C4H         -3.9680    -0.2370     0.1310 c6         1 AF1       0.186500
     16 C5H         -2.9240     0.7790     0.5950 c2         1 AF1      -0.150400
     17 C6H         -1.5980     0.5670     0.4490 c2         1 AF1      -0.188200
     18 C7H         -3.4840     2.0320     1.2440 c3         1 AF1       0.206800
     19 O2H         -2.3610    -1.0850    -2.1650 oh         1 AF1      -0.709000
     20 O3H         -3.0950    -2.2560     1.2980 oh         1 AF1      -0.644000
     21 O4H         -4.4700     0.2040    -1.1420 oh         1 AF1      -0.710000
     22 O7H         -3.2450     1.9950     2.6530 oh         1 AF1      -0.656000
     23 H1           4.6160    -0.1790    -1.2050 h2         1 AF1       0.027700
     24 H2           3.4270     0.1860     1.6180 h1         1 AF1       0.067700
     25 H3           2.6150    -1.6810    -0.6660 h1         1 AF1       0.047700
     26 H4           1.1530     0.7330     0.5470 h1         1 AF1       0.061700
     27 H5           2.5000     0.4570    -2.2030 h1         1 AF1       0.039700
     28 H6           1.1680     2.8880    -0.8440 hc         1 AF1       0.050700
     29 H6A          2.1120     2.9480    -2.3430 hc         1 AF1       0.050700
     30 H6B          0.5850     2.0650    -2.3010 hc         1 AF1       0.050700
     31 HO2          5.4450    -1.1270     1.3300 ho         1 AF1       0.521000
     32 HO3          2.5330    -2.2880     1.6640 ho         1 AF1       0.517000
     33 HN4         -0.1600     0.2820    -1.6840 hn         1 AF1       0.435000
     34 H1H         -0.6320    -1.3160     0.7480 h1         1 AF1       0.105700
     35 H2H         -1.6380    -2.6200    -0.9480 h1         1 AF1       0.059700
     36 H3H         -4.0830    -2.3120    -0.5310 h1         1 AF1       0.038700
     37 H4H         -4.7930    -0.2740     0.8580 h1         1 AF1       0.023700
     38 H6H         -0.9020     1.3200     0.8130 ha         1 AF1       0.192000
     39 H7H         -3.0020     2.9150     0.8030 h1         1 AF1       0.019700
     40 H7HA        -4.5610     2.1150     1.0480 h1         1 AF1       0.019700
     41 HO2H        -3.1440    -0.4910    -1.9890 ho         1 AF1       0.506000
     42 HO3H        -3.9560    -2.3150     1.7680 ho         1 AF1       0.442000
     43 HO4H        -5.0960     0.9430    -0.9590 ho         1 AF1       0.499000
     44 HO7H        -3.6070     2.8290     3.0230 ho         1 AF1       0.445000
     45 H23          5.3530     1.9990    -0.0720 ho         1 AF1       0.520000
@<TRIPOS>BOND
     1     1     2 1   
     2     1     7 1   
     3     1    10 1   
     4     1    23 1   
     5     2     3 1   
     6     2     8 1   
     7     2    24 1   
     8     3     4 1   
     9     3     9 1   
    10     3    25 1   
    11     4     5 1   
    12     4    11 1   
    13     4    26 1   
    14     5     6 1   
    15     5    10 1   
    16     5    27 1   
    17     6    28 1   
    18     6    29 1   
    19     6    30 1   
    20     7    45 1   
    21     8    31 1   
    22     9    32 1   
    23    11    12 1   
    24    11    33 1   
    25    12    13 1   
    26    12    17 1   
    27    12    34 1   
    28    13    14 1   
    29    13    19 1   
    30    13    35 1   
    31    14    15 1   
    32    14    20 1   
    33    14    36 1   
    34    15    16 1   
    35    15    21 1   
    36    15    37 1   
    37    16    17 2   
    38    16    18 1   
    39    17    38 1   
    40    18    22 1   
    41    18    39 1   
    42    18    40 1   
    43    19    41 1   
    44    20    42 1   
    45    21    43 1   
    46    22    44 1   
@<TRIPOS>SUBSTRUCTURE
     1 AF1         1 TEMP              0 ****  ****    0 ROOT
