@<TRIPOS>MOLECULE
AF1
   45    46     1     0     0
SMALL
abcg2


@<TRIPOS>ATOM
      1 C1           4.2510     0.4930    -0.2580 c6         1 AF1       0.367300
      2 C2           3.6920    -0.5880     0.6570 c6         1 AF1       0.104300
      3 C3           2.3680    -1.0810     0.0920 c6         1 AF1       0.182300
      4 C4           1.3980     0.0770    -0.1480 c6         1 AF1       0.156500
      5 C5           2.0990     1.1720    -0.9680 c6         1 AF1       0.169300
      6 C6           1.2770     2.4400    -1.0990 c3         1 AF1      -0.095100
      7 O1           5.4140     0.9900     0.2950 oh         1 AF1      -0.706000
      8 O2           4.5560    -1.6970     0.7420 oh         1 AF1      -0.726000
      9 O3           1.7560    -2.0070     0.9550 oh         1 AF1      -0.709000
     10 O5           3.3210     1.5420    -0.3570 os         1 AF1      -0.487000
     11 N4           0.2170    -0.4090    -0.8440 n7         1 AF1      -0.872400
     12 C1H         -0.9650    -0.6340    -0.0260 c6         1 AF1       0.223700
     13 C2H         -1.9640    -1.4880    -0.7970 c6         1 AF1       0.192300
     14 C3H         -3.2690    -1.6050    -0.0150 c6         1 AF1       0.128300
     15 C4H         -3.9230    -0.2370     0.2180 c6         1 AF1       0.186500
     16 C5H         -2.9190     0.8300     0.5730 c2         1 AF1      -0.150400
     17 C6H         -1.6080     0.6370     0.4640 c2         1 AF1      -0.188200
     18 C7H         -3.5250     2.1180     1.0450 c3         1 AF1       0.206800
     19 O2H         -2.1820    -0.8700    -2.0430 oh         1 AF1      -0.709000
     20 O3H         -2.9500    -2.2330     1.2060 oh         1 AF1      -0.644000
     21 O4H         -4.6750     0.1460    -0.9240 oh         1 AF1      -0.710000
     22 O7H         -2.5370     3.0250     1.4610 oh         1 AF1      -0.656000
     23 H1           4.4320     0.0650    -1.2600 h2         1 AF1       0.027700
     24 H2           3.5160    -0.1410     1.6490 h1         1 AF1       0.067700
     25 H3           2.5710    -1.5390    -0.8910 h1         1 AF1       0.047700
     26 H4           1.1390     0.5180     0.8280 h1         1 AF1       0.061700
     27 H5           2.2980     0.7660    -1.9740 h1         1 AF1       0.039700
     28 H6           1.0720     2.8770    -0.1200 hc         1 AF1       0.050700
     29 H6A          1.8080     3.1780    -1.7010 hc         1 AF1       0.050700
     30 H6B          0.3220     2.2520    -1.5880 hc         1 AF1       0.050700
     31 HO2          5.3320    -1.4440     1.2500 ho         1 AF1       0.521000
     32 HO3          2.3570    -2.7500     1.0730 ho         1 AF1       0.517000
     33 HN4         -0.0250     0.1930    -1.6200 hn         1 AF1       0.435000
     34 H1H         -0.6420    -1.2180     0.8390 h1         1 AF1       0.105700
     35 H2H         -1.5350    -2.4920    -0.9290 h1         1 AF1       0.059700
     36 H3H         -3.9790    -2.2170    -0.5930 h1         1 AF1       0.038700
     37 H4H         -4.6060    -0.3570     1.0730 h1         1 AF1       0.023700
     38 H6H         -0.9300     1.4360     0.7440 ha         1 AF1       0.192000
     39 H7H         -4.1310     2.5360     0.2290 h1         1 AF1       0.019700
     40 H7HA        -4.2330     1.8910     1.8570 h1         1 AF1       0.019700
     41 HO2H        -2.8650    -1.3540    -2.5160 ho         1 AF1       0.506000
     42 HO3H        -3.7670    -2.4000     1.6870 ho         1 AF1       0.442000
     43 HO4H        -5.5400     0.4430    -0.6320 ho         1 AF1       0.499000
     44 HO7H        -2.9620     3.8710     1.6250 ho         1 AF1       0.445000
     45 H23          5.9420     1.4130    -0.3900 ho         1 AF1       0.520000
@<TRIPOS>BOND
     1     1     2 1   
     2     1     7 1   
     3     1    10 1   
     4     1    23 1   
     5     2     3 1   
     6     2     8 1   
     7     2    24 1   
     8     3     4 1   
     9     3     9 1   
    10     3    25 1   
    11     4     5 1   
    12     4    11 1   
    13     4    26 1   
    14     5     6 1   
    15     5    10 1   
    16     5    27 1   
    17     6    28 1   
    18     6    29 1   
    19     6    30 1   
    20     7    45 1   
    21     8    31 1   
    22     9    32 1   
    23    11    12 1   
    24    11    33 1   
    25    12    13 1   
    26    12    17 1   
    27    12    34 1   
    28    13    14 1   
    29    13    19 1   
    30    13    35 1   
    31    14    15 1   
    32    14    20 1   
    33    14    36 1   
    34    15    16 1   
    35    15    21 1   
    36    15    37 1   
    37    16    17 2   
    38    16    18 1   
    39    17    38 1   
    40    18    22 1   
    41    18    39 1   
    42    18    40 1   
    43    19    41 1   
    44    20    42 1   
    45    21    43 1   
    46    22    44 1   
@<TRIPOS>SUBSTRUCTURE
     1 AF1         1 TEMP              0 ****  ****    0 ROOT
