@<TRIPOS>MOLECULE
AF4
   61    63     1     0     0
SMALL
abcg2


@<TRIPOS>ATOM
      1 C1          -8.4510     2.7080     1.5330 c3         1 AF4      -0.090600
      2 C2          -8.2660     1.8610     0.2820 c3         1 AF4       0.186500
      3 C3          -8.3390     2.7330    -0.9640 c3         1 AF4      -0.090600
      4 N4          -6.9710     1.1940     0.3700 n7         1 AF4      -0.873400
      5 C5          -6.6910     0.1820    -0.6230 c3         1 AF4       0.448000
      6 N6          -7.6740    -0.8870    -0.6340 n8         1 AF4      -1.040200
      7 C7          -5.2380    -0.2490    -0.4540 ca         1 AF4      -0.121300
      8 C10         -4.2340     0.7180    -0.4640 ca         1 AF4      -0.096000
      9 C11         -2.9000     0.3680    -0.3500 ca         1 AF4      -0.105500
     10 C8          -4.8570    -1.5780    -0.3130 ca         1 AF4      -0.096000
     11 C9          -3.5220    -1.9320    -0.1830 ca         1 AF4      -0.105500
     12 C12         -2.5160    -0.9680    -0.2070 ca         1 AF4       0.006000
     13 C13         -1.1030    -1.3340    -0.0980 cc         1 AF4      -0.110000
     14 C15         -0.5590    -2.5790    -0.1750 cd         1 AF4       0.141900
     15 O16          0.7780    -2.5190    -0.0420 os         1 AF4      -0.232000
     16 C14          0.0070    -0.4530     0.0960 cc         1 AF4      -0.163000
     17 C17          1.1260    -1.2250     0.1230 cd         1 AF4       0.189500
     18 C18          2.5360    -0.9120     0.2800 ca         1 AF4      -0.120500
     19 C21          3.5150    -1.9050     0.2980 ca         1 AF4      -0.091500
     20 C22          4.8560    -1.5760     0.4410 ca         1 AF4      -0.101000
     21 C19          2.9440     0.4190     0.4160 ca         1 AF4      -0.091500
     22 C20          4.2810     0.7370     0.5480 ca         1 AF4      -0.101000
     23 C23          5.2650    -0.2540     0.5570 ca         1 AF4      -0.081300
     24 C24          6.7230     0.1470     0.6920 c3         1 AF4       0.449000
     25 N25          7.5730    -1.0160     0.8360 n8         1 AF4      -0.988200
     26 N26          7.0930     1.0150    -0.4240 n7         1 AF4      -0.933400
     27 C27          7.8700     2.2030    -0.0900 c3         1 AF4       0.187500
     28 C29          9.2480     1.8330     0.4470 c3         1 AF4      -0.093600
     29 C28          7.9970     3.0670    -1.3360 c3         1 AF4      -0.093600
     30 H30         -8.4220     2.0980     2.4380 hc         1 AF4       0.036033
     31 H32         -9.4130     3.2200     1.5140 hc         1 AF4       0.036033
     32 H31         -7.6670     3.4640     1.6110 hc         1 AF4       0.036033
     33 H33         -9.0880     1.1340     0.2360 h1         1 AF4       0.039700
     34 H34         -7.5200     3.4540    -0.9770 hc         1 AF4       0.036033
     35 H35         -8.2920     2.1510    -1.8850 hc         1 AF4       0.036033
     36 H36         -9.2800     3.2850    -0.9840 hc         1 AF4       0.036033
     37 H37         -6.8630     0.7860     1.2930 hn         1 AF4       0.414000
     38 H5          -6.7560     0.6580    -1.6070 h2         1 AF4       0.075700
     39 H38         -7.5370    -1.4940    -1.4330 hn         1 AF4       0.402500
     40 H39         -7.5860    -1.4690     0.1910 hn         1 AF4       0.402500
     41 H42         -4.5030     1.7620    -0.5670 ha         1 AF4       0.115000
     42 H43         -2.1500     1.1480    -0.3780 ha         1 AF4       0.111000
     43 H40         -5.6020    -2.3620    -0.2990 ha         1 AF4       0.115000
     44 H41         -3.2710    -2.9790    -0.0580 ha         1 AF4       0.111000
     45 H45         -0.9810    -3.5590    -0.3280 h4         1 AF4       0.054100
     46 H44         -0.0310     0.6190     0.2090 ha         1 AF4       0.142000
     47 H48          3.2430    -2.9480     0.2020 ha         1 AF4       0.120000
     48 H49          5.5910    -2.3690     0.4690 ha         1 AF4       0.121000
     49 H46          2.2100     1.2160     0.4150 ha         1 AF4       0.120000
     50 H47          4.5620     1.7790     0.6560 ha         1 AF4       0.121000
     51 H24          6.8010     0.7060     1.6370 h2         1 AF4       0.049700
     52 H50          8.4840    -0.7290     1.1680 hn         1 AF4       0.402000
     53 H51          7.7320    -1.4200    -0.0800 hn         1 AF4       0.402000
     54 H52          6.2740     1.2920    -0.9470 hn         1 AF4       0.434000
     55 H53          7.3620     2.7990     0.6870 h1         1 AF4       0.015700
     56 H57          9.7850     1.2020    -0.2640 hc         1 AF4       0.038367
     57 H59          9.1930     1.3050     1.4000 hc         1 AF4       0.038367
     58 H58          9.8400     2.7330     0.6200 hc         1 AF4       0.038367
     59 H54          8.5280     2.5330    -2.1260 hc         1 AF4       0.038367
     60 H55          7.0170     3.3560    -1.7220 hc         1 AF4       0.038367
     61 H56          8.5470     3.9820    -1.1150 hc         1 AF4       0.038367
@<TRIPOS>BOND
     1     1     2 1   
     2     1    30 1   
     3     1    31 1   
     4     1    32 1   
     5     2     3 1   
     6     2     4 1   
     7     2    33 1   
     8     3    34 1   
     9     3    35 1   
    10     3    36 1   
    11     4     5 1   
    12     4    37 1   
    13     5     6 1   
    14     5     7 1   
    15     5    38 1   
    16     6    39 1   
    17     6    40 1   
    18     7     8 ar  
    19     7    10 ar  
    20     8     9 ar  
    21     8    41 1   
    22     9    12 ar  
    23     9    42 1   
    24    10    11 ar  
    25    10    43 1   
    26    11    12 ar  
    27    11    44 1   
    28    12    13 1   
    29    13    14 2   
    30    13    16 1   
    31    14    15 1   
    32    14    45 1   
    33    15    17 1   
    34    16    17 2   
    35    16    46 1   
    36    17    18 1   
    37    18    19 ar  
    38    18    21 ar  
    39    19    20 ar  
    40    19    47 1   
    41    20    23 ar  
    42    20    48 1   
    43    21    22 ar  
    44    21    49 1   
    45    22    23 ar  
    46    22    50 1   
    47    23    24 1   
    48    24    25 1   
    49    24    26 1   
    50    24    51 1   
    51    25    52 1   
    52    25    53 1   
    53    26    27 1   
    54    26    54 1   
    55    27    28 1   
    56    27    29 1   
    57    27    55 1   
    58    28    56 1   
    59    28    57 1   
    60    28    58 1   
    61    29    59 1   
    62    29    60 1   
    63    29    61 1   
@<TRIPOS>SUBSTRUCTURE
     1 AF4         1 TEMP              0 ****  ****    0 ROOT
