@<TRIPOS>MOLECULE
AF4
   61    63     1     0     0
SMALL
No Charge or Current Charge


@<TRIPOS>ATOM
      1 C1          -8.8050     1.8640    -1.5380 c3         1 AF4      -0.090600
      2 C2          -7.7500     0.8880    -0.9790 c3         1 AF4       0.186500
      3 C3          -6.5430     0.7560    -1.9360 c3         1 AF4      -0.090600
      4 N4          -7.3420     1.3670     0.3570 n7         1 AF4      -0.873400
      5 C5          -6.7800     0.3990     1.2370 c3         1 AF4       0.448000
      6 N6          -6.9440     1.1880     2.4050 n8         1 AF4      -1.040200
      7 C7          -5.3030     0.0920     0.9890 ca         1 AF4      -0.121300
      8 C10         -4.3630     1.1160     0.7460 ca         1 AF4      -0.096000
      9 C11         -3.0120     0.8050     0.5150 ca         1 AF4      -0.105500
     10 C8          -4.8610    -1.2440     0.9990 ca         1 AF4      -0.096000
     11 C9          -3.5090    -1.5540     0.7690 ca         1 AF4      -0.105500
     12 C12         -2.5650    -0.5330     0.5230 ca         1 AF4       0.006000
     13 C13         -1.1470    -0.8300     0.2770 cc         1 AF4      -0.110000
     14 C15         -0.6320    -2.1040     0.2660 cd         1 AF4       0.141900
     15 O16          0.7220    -2.1010     0.0120 os         1 AF4      -0.232000
     16 C14         -0.0610     0.0330     0.0150 cc         1 AF4      -0.163000
     17 C17          1.0370    -0.7690    -0.1370 cd         1 AF4       0.189500
     18 C18          2.4410    -0.4130    -0.4250 ca         1 AF4      -0.120500
     19 C21          3.4330    -1.4100    -0.5430 ca         1 AF4      -0.091500
     20 C22          4.7680    -1.0650    -0.8160 ca         1 AF4      -0.101000
     21 C19          2.8190     0.9370    -0.5860 ca         1 AF4      -0.091500
     22 C20          4.1540     1.2820    -0.8590 ca         1 AF4      -0.101000
     23 C23          5.1430     0.2810    -0.9790 ca         1 AF4      -0.081300
     24 C24          6.6090     0.6230    -1.2610 c3         1 AF4       0.449000
     25 N25          6.7960     1.4830    -2.3660 n8         1 AF4      -0.988200
     26 N26          7.1690     1.5050    -0.2900 n7         1 AF4      -0.933400
     27 C27          7.5880     0.8740     0.9750 c3         1 AF4       0.187500
     28 C29          8.9070     0.0920     0.7880 c3         1 AF4      -0.093600
     29 C28          7.7220     1.9700     2.0480 c3         1 AF4      -0.093600
     30 H30         -9.6690     1.9300    -0.8660 hc         1 AF4       0.036033
     31 H32         -9.1650     1.5230    -2.5160 hc         1 AF4       0.036033
     32 H31         -8.3840     2.8700    -1.6600 hc         1 AF4       0.036033
     33 H33         -8.2330    -0.0970    -0.8960 h1         1 AF4       0.039700
     34 H34         -5.9690     1.6900    -1.9770 hc         1 AF4       0.036033
     35 H35         -5.8730    -0.0530    -1.6240 hc         1 AF4       0.036033
     36 H36         -6.8840     0.5210    -2.9510 hc         1 AF4       0.036033
     37 H37         -8.1990     1.6200     0.8500 hn         1 AF4       0.414000
     38 H5          -7.3890    -0.5180     1.2960 h2         1 AF4       0.075700
     39 H38         -6.5070     0.6700     3.1720 hn         1 AF4       0.402500
     40 H39         -6.3030     1.9710     2.2710 hn         1 AF4       0.402500
     41 H42         -4.6810     2.1560     0.7260 ha         1 AF4       0.115000
     42 H43         -2.3150     1.6160     0.3270 ha         1 AF4       0.111000
     43 H40         -5.5690    -2.0500     1.1840 ha         1 AF4       0.115000
     44 H41         -3.2110    -2.5980     0.7840 ha         1 AF4       0.111000
     45 H45         -1.0980    -3.0680     0.4190 h4         1 AF4       0.054100
     46 H44         -0.1010     1.1140    -0.0510 ha         1 AF4       0.142000
     47 H48          3.1770    -2.4610    -0.4230 ha         1 AF4       0.120000
     48 H49          5.5160    -1.8510    -0.8990 ha         1 AF4       0.121000
     49 H46          2.0810     1.7300    -0.5010 ha         1 AF4       0.120000
     50 H47          4.4140     2.3310    -0.9780 ha         1 AF4       0.121000
     51 H24          7.2180    -0.2820    -1.3960 h2         1 AF4       0.049700
     52 H50          7.7420     1.8390    -2.2250 hn         1 AF4       0.402000
     53 H51          6.1990     2.2930    -2.2170 hn         1 AF4       0.402000
     54 H52          6.4100     2.1420    -0.0430 hn         1 AF4       0.434000
     55 H53          6.8150     0.1720     1.3180 h1         1 AF4       0.015700
     56 H57          9.7010     0.7480     0.4100 hc         1 AF4       0.038367
     57 H59          8.7820    -0.7400     0.0860 hc         1 AF4       0.038367
     58 H58          9.2400    -0.3290     1.7440 hc         1 AF4       0.038367
     59 H54          8.4850     2.7060     1.7660 hc         1 AF4       0.038367
     60 H55          6.7700     2.4950     2.1900 hc         1 AF4       0.038367
     61 H56          8.0100     1.5310     3.0110 hc         1 AF4       0.038367
@<TRIPOS>BOND
     1     1     2 1   
     2     1    30 1   
     3     1    31 1   
     4     1    32 1   
     5     2     3 1   
     6     2     4 1   
     7     2    33 1   
     8     3    34 1   
     9     3    35 1   
    10     3    36 1   
    11     4     5 1   
    12     4    37 1   
    13     5     6 1   
    14     5     7 1   
    15     5    38 1   
    16     6    39 1   
    17     6    40 1   
    18     7     8 ar  
    19     7    10 ar  
    20     8     9 ar  
    21     8    41 1   
    22     9    12 ar  
    23     9    42 1   
    24    10    11 ar  
    25    10    43 1   
    26    11    12 ar  
    27    11    44 1   
    28    12    13 1   
    29    13    14 2   
    30    13    16 1   
    31    14    15 1   
    32    14    45 1   
    33    15    17 1   
    34    16    17 2   
    35    16    46 1   
    36    17    18 1   
    37    18    19 ar  
    38    18    21 ar  
    39    19    20 ar  
    40    19    47 1   
    41    20    23 ar  
    42    20    48 1   
    43    21    22 ar  
    44    21    49 1   
    45    22    23 ar  
    46    22    50 1   
    47    23    24 1   
    48    24    25 1   
    49    24    26 1   
    50    24    51 1   
    51    25    52 1   
    52    25    53 1   
    53    26    27 1   
    54    26    54 1   
    55    27    28 1   
    56    27    29 1   
    57    27    55 1   
    58    28    56 1   
    59    28    57 1   
    60    28    58 1   
    61    29    59 1   
    62    29    60 1   
    63    29    61 1   
@<TRIPOS>SUBSTRUCTURE
     1 AF4         1 TEMP              0 ****  ****    0 ROOT
