@<TRIPOS>MOLECULE
AF5
   46    50     1     0     0
SMALL
No Charge or Current Charge


@<TRIPOS>ATOM
      1 N01         -1.7500    -1.1710    -0.0240 na         1 AF5      -0.628200
      2 C02         -1.4030    -2.4600    -0.6680 cx         1 AF5       0.180500
      3 C03         -2.3740    -3.4370    -1.2890 cx         1 AF5      -0.146900
      4 C04         -1.6020    -3.8240    -0.0510 cx         1 AF5      -0.146900
      5 C05         -3.0720    -0.9880     0.4130 cc         1 AF5       0.003000
      6 C06         -3.6030     0.2570     0.0860 cd         1 AF5      -0.288400
      7 C07         -5.0690     0.4470     0.2790 c          1 AF5       0.726200
      8 O08         -5.5930     1.5260     0.0580 o          1 AF5      -0.713000
      9 O09         -5.7200    -0.5010     0.6930 o          1 AF5      -0.713000
     10 C10         -2.7650     1.3540    -0.4510 c          1 AF5       0.596900
     11 O11         -3.1950     2.3910    -0.9420 o          1 AF5      -0.544100
     12 C12         -1.3010     1.1620    -0.3160 ca         1 AF5      -0.238600
     13 C13         -0.8350    -0.1020     0.0310 ca         1 AF5       0.367000
     14 C14          0.5400    -0.2990     0.3650 ca         1 AF5      -0.194800
     15 C15          0.9570    -1.6180     0.9760 ce         1 AF5      -0.112200
     16 C16          2.1590    -2.2430     0.9880 c2         1 AF5      -0.261200
     17 C17          3.5040    -1.8230     0.4190 c3         1 AF5      -0.039200
     18 C18          3.5600    -0.4650    -0.3240 c5         1 AF5       0.252500
     19 N19          2.8330     0.5850     0.4210 nh         1 AF5      -0.837400
     20 C20          3.7500     1.5420     1.1080 c5         1 AF5       0.237800
     21 C21          5.1310     0.8480     0.9580 c5         1 AF5      -0.134400
     22 C22          4.9890     0.1950    -0.4410 c5         1 AF5       0.141500
     23 N23          6.1210    -0.7000    -0.7760 n8         1 AF5      -0.987200
     24 C24          1.4450     0.7890     0.2100 ca         1 AF5       0.365000
     25 C25          0.9500     2.0500    -0.2250 ca         1 AF5       0.023000
     26 F26          1.7680     3.1100    -0.4390 f          1 AF5      -0.205000
     27 C27         -0.4130     2.2390    -0.4520 ca         1 AF5      -0.027000
     28 H021        -0.4790    -2.3000    -1.2280 h1         1 AF5       0.089700
     29 H031        -3.4390    -3.2460    -1.1850 hc         1 AF5       0.079200
     30 H032        -2.0870    -3.8970    -2.2310 hc         1 AF5       0.079200
     31 H041        -0.7930    -4.5410    -0.1560 hc         1 AF5       0.079200
     32 H042        -2.1430    -3.8800     0.8900 hc         1 AF5       0.079200
     33 H051        -3.6440    -1.8460     0.7630 h4         1 AF5       0.226000
     34 H151         0.1420    -2.1230     1.4990 ha         1 AF5       0.176000
     35 H161         2.2240    -3.2030     1.5040 ha         1 AF5       0.159000
     36 H172         4.2180    -1.8190     1.2490 hc         1 AF5       0.044200
     37 H171         3.8620    -2.6050    -0.2610 hc         1 AF5       0.044200
     38 H181         3.1280    -0.6090    -1.3260 h1         1 AF5       0.072700
     39 H201         3.7780     2.5210     0.6140 h1         1 AF5       0.052200
     40 H202         3.4850     1.6940     2.1640 h1         1 AF5       0.052200
     41 H211         5.9540     1.5690     1.0070 hc         1 AF5       0.047200
     42 H212         5.2960     0.1130     1.7530 hc         1 AF5       0.047200
     43 H221         4.9590     0.9800    -1.2130 h1         1 AF5       0.065700
     44 H231         6.9970    -0.1680    -0.7150 hn         1 AF5       0.393000
     45 H232         6.2180    -1.4040    -0.0360 hn         1 AF5       0.393000
     46 H271        -0.7730     3.2260    -0.7380 ha         1 AF5       0.149000
@<TRIPOS>BOND
     1     1     2 1   
     2     1     5 1   
     3     1    13 1   
     4     2     3 1   
     5     2     4 1   
     6     2    28 1   
     7     3     4 1   
     8     3    29 1   
     9     3    30 1   
    10     4    31 1   
    11     4    32 1   
    12     5     6 2   
    13     5    33 1   
    14     6     7 1   
    15     6    10 1   
    16     7     8 1   
    17     7     9 1   
    18    10    11 2   
    19    10    12 1   
    20    12    13 ar  
    21    12    27 ar  
    22    13    14 ar  
    23    14    15 1   
    24    14    24 ar  
    25    15    16 2   
    26    15    34 1   
    27    16    17 1   
    28    16    35 1   
    29    17    18 1   
    30    17    36 1   
    31    17    37 1   
    32    18    19 1   
    33    18    22 1   
    34    18    38 1   
    35    19    20 1   
    36    19    24 1   
    37    20    21 1   
    38    20    39 1   
    39    20    40 1   
    40    21    22 1   
    41    21    41 1   
    42    21    42 1   
    43    22    23 1   
    44    22    43 1   
    45    23    44 1   
    46    23    45 1   
    47    24    25 ar  
    48    25    26 1   
    49    25    27 ar  
    50    27    46 1   
@<TRIPOS>SUBSTRUCTURE
     1 AF5         1 TEMP              0 ****  ****    0 ROOT
