@<TRIPOS>MOLECULE
AF5
   46    50     1     0     0
SMALL
abcg2


@<TRIPOS>ATOM
      1 N01         -1.6660    -1.1300    -0.1720 na         1 AF5      -0.628200
      2 C02         -1.1370    -2.3880    -0.6750 cx         1 AF5       0.180500
      3 C03         -1.9870    -3.4390    -1.3070 cx         1 AF5      -0.146900
      4 C04         -1.3450    -3.6870     0.0280 cx         1 AF5      -0.146900
      5 C05         -2.9980    -0.9100    -0.1890 cc         1 AF5       0.003000
      6 C06         -3.6170     0.2970    -0.0870 cd         1 AF5      -0.288400
      7 C07         -5.1380     0.2930    -0.0460 c          1 AF5       0.726200
      8 O08         -5.7150     1.3820     0.1130 o          1 AF5      -0.713000
      9 O09         -5.6890    -0.8230    -0.1620 o          1 AF5      -0.713000
     10 C10         -2.7960     1.4880    -0.0960 c          1 AF5       0.596900
     11 O11         -3.2070     2.6460    -0.1730 o          1 AF5      -0.544100
     12 C12         -1.3520     1.2260     0.0130 ca         1 AF5      -0.238600
     13 C13         -0.8110    -0.0610     0.0670 ca         1 AF5       0.367000
     14 C14          0.5550    -0.2660     0.3960 ca         1 AF5      -0.194800
     15 C15          0.9130    -1.5200     1.0670 ce         1 AF5      -0.112200
     16 C16          2.0870    -2.1130     1.2990 c2         1 AF5      -0.261200
     17 C17          3.4310    -1.7520     0.7820 c3         1 AF5      -0.039200
     18 C18          3.3970    -0.5850    -0.1870 c5         1 AF5       0.252500
     19 N19          2.7950     0.6090     0.4100 nh         1 AF5      -0.837400
     20 C20          3.8100     1.6260     0.7170 c5         1 AF5       0.237800
     21 C21          5.1220     0.8810     0.5510 c5         1 AF5      -0.134400
     22 C22          4.8030    -0.1010    -0.5760 c5         1 AF5       0.141500
     23 N23          5.7320    -1.1830    -0.8190 n8         1 AF5      -0.987200
     24 C24          1.4530     0.8240     0.3260 ca         1 AF5       0.365000
     25 C25          0.8700     2.1080     0.2030 ca         1 AF5       0.023000
     26 F26          1.6580     3.2020     0.2040 f          1 AF5      -0.205000
     27 C27         -0.4710     2.3100     0.1090 ca         1 AF5      -0.027000
     28 H021        -0.1750    -2.2370    -1.1440 h1         1 AF5       0.089700
     29 H031        -3.0630    -3.3400    -1.3430 hc         1 AF5       0.079200
     30 H032        -1.5700    -3.9210    -2.1820 hc         1 AF5       0.079200
     31 H041        -0.5070    -4.3680     0.1020 hc         1 AF5       0.079200
     32 H042        -2.0000    -3.6780     0.8910 hc         1 AF5       0.079200
     33 H051        -3.6210    -1.7840    -0.3010 h4         1 AF5       0.226000
     34 H151         0.0620    -2.0040     1.5290 ha         1 AF5       0.176000
     35 H161         2.0550    -3.0020     1.9210 ha         1 AF5       0.159000
     36 H172         4.0940    -1.5280     1.6250 hc         1 AF5       0.044200
     37 H171         3.8650    -2.6290     0.2890 hc         1 AF5       0.044200
     38 H181         2.8230    -0.8740    -1.0730 h1         1 AF5       0.072700
     39 H201         3.7860     2.4550     0.0100 h1         1 AF5       0.052200
     40 H202         3.6690     2.0290     1.7200 h1         1 AF5       0.052200
     41 H211         5.9410     1.5570     0.3050 hc         1 AF5       0.047200
     42 H212         5.4020     0.3410     1.4600 hc         1 AF5       0.047200
     43 H221         4.7140     0.4650    -1.5080 h1         1 AF5       0.065700
     44 H231         6.5700    -0.8160    -1.2510 hn         1 AF5       0.393000
     45 H232         6.0310    -1.5950     0.0570 hn         1 AF5       0.393000
     46 H271        -0.8560     3.3200     0.0550 ha         1 AF5       0.149000
@<TRIPOS>BOND
     1     1     2 1   
     2     1     5 1   
     3     1    13 1   
     4     2     3 1   
     5     2     4 1   
     6     2    28 1   
     7     3     4 1   
     8     3    29 1   
     9     3    30 1   
    10     4    31 1   
    11     4    32 1   
    12     5     6 2   
    13     5    33 1   
    14     6     7 1   
    15     6    10 1   
    16     7     8 1   
    17     7     9 1   
    18    10    11 2   
    19    10    12 1   
    20    12    13 ar  
    21    12    27 ar  
    22    13    14 ar  
    23    14    15 1   
    24    14    24 ar  
    25    15    16 2   
    26    15    34 1   
    27    16    17 1   
    28    16    35 1   
    29    17    18 1   
    30    17    36 1   
    31    17    37 1   
    32    18    19 1   
    33    18    22 1   
    34    18    38 1   
    35    19    20 1   
    36    19    24 1   
    37    20    21 1   
    38    20    39 1   
    39    20    40 1   
    40    21    22 1   
    41    21    41 1   
    42    21    42 1   
    43    22    23 1   
    44    22    43 1   
    45    23    44 1   
    46    23    45 1   
    47    24    25 ar  
    48    25    26 1   
    49    25    27 ar  
    50    27    46 1   
@<TRIPOS>SUBSTRUCTURE
     1 AF5         1 TEMP              0 ****  ****    0 ROOT
