@<TRIPOS>MOLECULE
AF6
   36    39     1     0     0
SMALL
bcc


@<TRIPOS>ATOM
      1 C10        -18.2630   -63.8630    39.4090 ca         1 AF6       0.433200
      2 C13        -16.4500   -65.0410    37.6910 ca         1 AF6      -0.261300
      3 C15        -16.9140   -64.4410    34.8790 c3         1 AF6       0.260100
      4 C17        -17.0640   -63.3880    32.5950 ca         1 AF6      -0.111000
      5 C20        -19.2510   -64.9560    31.9350 ca         1 AF6      -0.132500
      6 C21        -18.6570   -65.0800    33.1820 ca         1 AF6      -0.111000
      7 C01        -14.1570   -66.5800    39.6270 ca         1 AF6      -0.056000
      8 C02        -13.4230   -67.0790    40.6870 ca         1 AF6      -0.175000
      9 C03        -13.8200   -66.8300    42.0090 ca         1 AF6      -0.086000
     10 C04        -14.9480   -66.0850    42.3020 ca         1 AF6      -0.172000
     11 C05        -15.6870   -65.5840    41.2310 ca         1 AF6       0.016800
     12 C06        -15.2990   -65.8260    39.8950 cp         1 AF6      -0.112000
     13 C07        -16.2760   -65.1750    39.0630 cp         1 AF6      -0.011000
     14 C08        -17.2000   -64.5760    39.9370 ca         1 AF6      -0.177500
     15 N09        -16.8270   -64.8330    41.2370 na         1 AF6      -0.177300
     16 N11        -18.4300   -63.7470    38.1030 nb         1 AF6      -0.717000
     17 C12        -17.5630   -64.3190    37.2540 ca         1 AF6       0.632200
     18 N14        -17.8750   -64.1670    35.9210 nu         1 AF6      -0.856900
     19 C16        -17.5540   -64.2980    33.5240 ca         1 AF6      -0.107300
     20 C18        -17.6560   -63.2620    31.3430 ca         1 AF6      -0.132500
     21 C19        -18.7520   -64.0450    31.0110 ca         1 AF6      -0.120000
     22 H101       -18.9930   -63.3740    40.0460 h4         1 AF6       0.019100
     23 H131       -15.7450   -65.4820    37.0000 ha         1 AF6       0.144000
     24 H152       -16.5550   -65.4690    34.9910 h1         1 AF6       0.042200
     25 H151       -16.0290   -63.7940    34.9410 h1         1 AF6       0.042200
     26 H201       -20.1040   -65.5720    31.6820 ha         1 AF6       0.131500
     27 H211       -19.0520   -65.7930    33.8970 ha         1 AF6       0.135500
     28 H011       -13.8510   -66.7710    38.6060 ha         1 AF6       0.134000
     29 H021       -12.5350   -67.6680    40.5000 ha         1 AF6       0.132000
     30 H031       -13.2290   -67.2310    42.8220 ha         1 AF6       0.129000
     31 H041       -15.2450   -65.9000    43.3260 ha         1 AF6       0.134000
     32 H091       -17.3190   -64.5240    42.0590 hn         1 AF6       0.304700
     33 H141       -18.4840   -63.3820    35.7440 hn         1 AF6       0.427800
     34 H181       -17.2620   -62.5480    30.6310 ha         1 AF6       0.131500
     35 H191       -19.2150   -63.9490    30.0380 ha         1 AF6       0.131000
     36 H171       -16.2120   -62.7690    32.8500 ha         1 AF6       0.135500
@<TRIPOS>BOND
     1     1    14 ar  
     2     1    16 ar  
     3     1    22 1   
     4     2    13 ar  
     5     2    17 ar  
     6     2    23 1   
     7     3    18 1   
     8     3    19 1   
     9     3    24 1   
    10     3    25 1   
    11     4    19 ar  
    12     4    20 ar  
    13     4    36 1   
    14     5     6 ar  
    15     5    21 ar  
    16     5    26 1   
    17     6    19 ar  
    18     6    27 1   
    19     7     8 ar  
    20     7    12 ar  
    21     7    28 1   
    22     8     9 ar  
    23     8    29 1   
    24     9    10 ar  
    25     9    30 1   
    26    10    11 ar  
    27    10    31 1   
    28    11    12 ar  
    29    11    15 1   
    30    12    13 1   
    31    13    14 ar  
    32    14    15 1   
    33    15    32 1   
    34    16    17 ar  
    35    17    18 1   
    36    18    33 1   
    37    20    21 ar  
    38    20    34 1   
    39    21    35 1   
@<TRIPOS>SUBSTRUCTURE
     1 AF6         1 TEMP              0 ****  ****    0 ROOT
