@<TRIPOS>MOLECULE
AF6
   36    39     1     0     0
SMALL
No Charge or Current Charge


@<TRIPOS>ATOM
      1 C10        -18.1980   -63.7730    39.2970 ca         1 AF6       0.367900
      2 C13        -16.3550   -65.1500    37.7210 ca         1 AF6      -0.178000
      3 C15        -16.9680   -64.8620    34.7460 c3         1 AF6       0.260100
      4 C17        -17.2330   -63.2800    32.7720 ca         1 AF6      -0.093000
      5 C20        -19.2430   -64.8950    31.6550 ca         1 AF6      -0.114500
      6 C21        -18.6360   -65.2660    32.8680 ca         1 AF6      -0.093000
      7 C01        -14.1310   -66.6210    39.7620 ca         1 AF6      -0.038000
      8 C02        -13.3900   -67.0900    40.8700 ca         1 AF6      -0.157000
      9 C03        -13.7710   -66.7560    42.1940 ca         1 AF6      -0.068000
     10 C04        -14.9030   -65.9460    42.4330 ca         1 AF6      -0.154000
     11 C05        -15.6170   -65.4970    41.3190 ca         1 AF6       0.016800
     12 C06        -15.2570   -65.8140    40.0110 cp         1 AF6      -0.112000
     13 C07        -16.2160   -65.1800    39.1170 cp         1 AF6      -0.011000
     14 C08        -17.1430   -64.4890    39.8840 ca         1 AF6      -0.112200
     15 N09        -16.7640   -64.6910    41.2260 na         1 AF6      -0.227600
     16 N11        -18.3400   -63.7380    37.9450 nb         1 AF6      -0.717000
     17 C12        -17.4400   -64.4090    37.2040 ca         1 AF6       0.566900
     18 N14        -17.7070   -64.2860    35.8690 nu         1 AF6      -0.912100
     19 C16        -17.6260   -64.4610    33.4330 ca         1 AF6      -0.107300
     20 C18        -17.8410   -62.9100    31.5590 ca         1 AF6      -0.114500
     21 C19        -18.8460   -63.7170    31.0000 ca         1 AF6      -0.102000
     22 H101       -18.9270   -63.2290    39.8960 h4         1 AF6       0.019100
     23 H131       -15.6590   -65.6730    37.0740 ha         1 AF6       0.126000
     24 H152       -16.9510   -65.9580    34.8280 h1         1 AF6       0.042200
     25 H151       -15.9280   -64.5100    34.7570 h1         1 AF6       0.042200
     26 H201       -20.0220   -65.5200    31.2240 ha         1 AF6       0.113500
     27 H211       -18.9510   -66.1780    33.3710 ha         1 AF6       0.117500
     28 H011       -13.8410   -66.8750    38.7450 ha         1 AF6       0.116000
     29 H021       -12.5150   -67.7150    40.7030 ha         1 AF6       0.114000
     30 H031       -13.1870   -67.1280    43.0340 ha         1 AF6       0.111000
     31 H041       -15.2060   -65.6830    43.4440 ha         1 AF6       0.116000
     32 H091       -17.2540   -64.3070    42.0280 hn         1 AF6       0.355000
     33 H141       -18.5240   -63.7190    35.6640 hn         1 AF6       0.483000
     34 H181       -17.5330   -61.9970    31.0540 ha         1 AF6       0.113500
     35 H191       -19.3160   -63.4310    30.0620 ha         1 AF6       0.113000
     36 H171       -16.4570   -62.6480    33.2000 ha         1 AF6       0.117500
@<TRIPOS>BOND
     1     1    14 ar  
     2     1    16 ar  
     3     1    22 1   
     4     2    13 ar  
     5     2    17 ar  
     6     2    23 1   
     7     3    18 1   
     8     3    19 1   
     9     3    24 1   
    10     3    25 1   
    11     4    19 ar  
    12     4    20 ar  
    13     4    36 1   
    14     5     6 ar  
    15     5    21 ar  
    16     5    26 1   
    17     6    19 ar  
    18     6    27 1   
    19     7     8 ar  
    20     7    12 ar  
    21     7    28 1   
    22     8     9 ar  
    23     8    29 1   
    24     9    10 ar  
    25     9    30 1   
    26    10    11 ar  
    27    10    31 1   
    28    11    12 ar  
    29    11    15 1   
    30    12    13 1   
    31    13    14 ar  
    32    14    15 1   
    33    15    32 1   
    34    16    17 ar  
    35    17    18 1   
    36    18    33 1   
    37    20    21 ar  
    38    20    34 1   
    39    21    35 1   
@<TRIPOS>SUBSTRUCTURE
     1 AF6         1 TEMP              0 ****  ****    0 ROOT
