@<TRIPOS>MOLECULE
AF7
   84    88     1     0     0
SMALL
No Charge or Current Charge


@<TRIPOS>ATOM
      1 C10         13.4430   -21.6850   -20.1560 c6         1 AF7      -0.014700
      2 C13          8.4080   -22.1270   -18.0950 c2         1 AF7      -0.033400
      3 C15         12.4820   -21.2560   -21.3030 c6         1 AF7      -0.064400
      4 C17         14.9920   -21.4140   -20.4420 c6         1 AF7      -0.169000
      5 C20         10.7090   -21.4060   -17.1920 c          1 AF7       0.578300
      6 C21          9.9610   -20.0030   -19.8520 c3         1 AF7      -0.090100
      7 C22          6.5210   -23.7240   -17.2230 c6         1 AF7      -0.044700
      8 C24          9.3120   -23.9570   -19.4880 c3         1 AF7      -0.083100
      9 C28          5.0870   -23.0370   -19.5250 c6         1 AF7      -0.066400
     10 C06         10.3830   -21.5190   -19.7600 c6         1 AF7      -0.009000
     11 C07          9.0210   -22.4120   -19.5060 c6         1 AF7      -0.006800
     12 C08         12.9060   -21.1940   -18.7410 c6         1 AF7       0.000000
     13 C09         11.4070   -21.7450   -18.5500 c6         1 AF7      -0.141700
     14 C11         11.1000   -21.9110   -21.1050 c6         1 AF7      -0.075400
     15 C14          5.9460   -21.8390   -19.0030 c6         1 AF7      -0.034000
     16 C16          7.9370   -22.1630   -20.6270 c6         1 AF7      -0.063400
     17 C18         13.8320   -21.8680   -17.6570 c6         1 AF7      -0.068400
     18 C19          6.7810   -21.2390   -20.1730 c6         1 AF7      -0.070400
     19 C23         15.7960   -22.1250   -19.2940 c6         1 AF7       0.201300
     20 C30          4.2350   -23.7140   -18.4200 c6         1 AF7      -0.068400
     21 C31          4.9790   -20.7060   -18.5130 c3         1 AF7      -0.084100
     22 C32         15.4490   -22.0430   -21.8100 c3         1 AF7      -0.064100
     23 C33         15.3550   -19.8880   -20.5020 c          1 AF7       0.728000
     24 C34          7.3000   -24.0140   -15.9020 c3         1 AF7      -0.090100
     25 C35          4.4940   -25.1300   -16.3150 c3         1 AF7      -0.084100
     26 C37         16.1570   -25.8670   -18.9920 c3         1 AF7      -0.161100
     27 C12          6.8930   -22.3080   -17.8220 c6         1 AF7      -0.021500
     28 C25         12.9830   -19.6280   -18.5640 c3         1 AF7      -0.085100
     29 C26          9.2270   -21.6680   -17.1020 ce         1 AF7      -0.318200
     30 C27         15.3500   -21.6570   -17.8850 c6         1 AF7      -0.087400
     31 C29          4.9690   -23.8400   -17.0480 c6         1 AF7      -0.059700
     32 O01         15.6630   -23.5640   -19.4000 os         1 AF7      -0.465100
     33 O02         11.2950   -20.9910   -16.2020 o          1 AF7      -0.536100
     34 O03         14.8280   -19.2190   -21.3790 o          1 AF7      -0.724000
     35 O04         16.4350   -19.5450   -20.0410 o          1 AF7      -0.724000
     36 O05         17.5270   -24.0500   -18.1490 o          1 AF7      -0.513000
     37 H101        13.3440   -22.7790   -20.1400 hc         1 AF7       0.015700
     38 H152        12.8610   -21.5960   -22.2730 hc         1 AF7       0.060200
     39 H151        12.3910   -20.1690   -21.3870 hc         1 AF7       0.060200
     40 H211         9.4360   -19.6600   -18.9540 hc         1 AF7       0.037367
     41 H213        10.7970   -19.3240   -20.0050 hc         1 AF7       0.037367
     42 H212         9.3010   -19.8150   -20.7040 hc         1 AF7       0.037367
     43 H221         6.8340   -24.5110   -17.9180 hc         1 AF7       0.052700
     44 H241         9.9150   -24.2600   -18.6260 hc         1 AF7       0.035367
     45 H243         8.3850   -24.5320   -19.4180 hc         1 AF7       0.035367
     46 H242         9.8010   -24.3180   -20.3970 hc         1 AF7       0.035367
     47 H281         4.4280   -22.7100   -20.3410 hc         1 AF7       0.037700
     48 H282         5.7330   -23.8090   -19.9610 hc         1 AF7       0.037700
     49 H091        11.5100   -22.8330   -18.5030 hc         1 AF7       0.058700
     50 H111        10.4810   -21.6490   -21.9710 hc         1 AF7       0.026700
     51 H112        11.2510   -22.9940   -21.1700 hc         1 AF7       0.026700
     52 H161         7.5190   -23.1100   -20.9870 hc         1 AF7       0.040700
     53 H162         8.3800   -21.7340   -21.5300 hc         1 AF7       0.040700
     54 H181        13.6100   -21.4940   -16.6530 hc         1 AF7       0.031200
     55 H182        13.6370   -22.9490   -17.6210 hc         1 AF7       0.031200
     56 H191         7.1850   -20.2630   -19.8760 hc         1 AF7       0.043700
     57 H192         6.1260   -21.0350   -21.0310 hc         1 AF7       0.043700
     58 H231        16.8640   -21.8880   -19.4190 h1         1 AF7       0.090700
     59 H302         3.2970   -23.1590   -18.2770 hc         1 AF7       0.032200
     60 H301         3.9350   -24.7060   -18.7850 hc         1 AF7       0.032200
     61 H313         4.3620   -21.0200   -17.6640 hc         1 AF7       0.032033
     62 H311         5.5370   -19.8180   -18.1890 hc         1 AF7       0.032033
     63 H312         4.2980   -20.3890   -19.3120 hc         1 AF7       0.032033
     64 H321        15.1260   -23.0860   -21.9090 hc         1 AF7       0.021700
     65 H322        15.0560   -21.5000   -22.6770 hc         1 AF7       0.021700
     66 H323        16.5420   -22.0280   -21.9030 hc         1 AF7       0.021700
     67 H341         7.0900   -25.0180   -15.5160 hc         1 AF7       0.035033
     68 H343         8.3840   -23.9790   -16.0560 hc         1 AF7       0.035033
     69 H342         7.0450   -23.2910   -15.1180 hc         1 AF7       0.035033
     70 H353         4.8090   -25.1410   -15.2650 hc         1 AF7       0.029367
     71 H351         3.3990   -25.2010   -16.3150 hc         1 AF7       0.029367
     72 H352         4.8860   -26.0320   -16.7990 hc         1 AF7       0.029367
     73 H373        16.8540   -26.5630   -18.5130 hc         1 AF7       0.054367
     74 H371        15.1290   -26.0140   -18.6410 hc         1 AF7       0.054367
     75 H372        16.0630   -26.0580   -20.0670 hc         1 AF7       0.054367
     76 H121         6.6860   -21.6130   -16.9960 hc         1 AF7       0.046700
     77 H251        12.2370   -19.2500   -17.8580 hc         1 AF7       0.044033
     78 H252        13.9500   -19.2910   -18.1810 hc         1 AF7       0.044033
     79 H253        12.8400   -19.0820   -19.4980 hc         1 AF7       0.044033
     80 H261         8.8110   -21.4440   -16.1230 ha         1 AF7       0.181000
     81 H271        15.9060   -22.2060   -17.1150 hc         1 AF7       0.058200
     82 H272        15.6280   -20.6080   -17.7300 hc         1 AF7       0.058200
     83 H291         4.6420   -23.0090   -16.4090 hc         1 AF7       0.042700
     84 C36         16.5430   -24.4090   -18.7820 c          1 AF7       0.595100
@<TRIPOS>BOND
     1     1     3 1   
     2     1     4 1   
     3     1    12 1   
     4     1    37 1   
     5     2    11 1   
     6     2    27 1   
     7     2    29 2   
     8     3    14 1   
     9     3    38 1   
    10     3    39 1   
    11     4    19 1   
    12     4    22 1   
    13     4    23 1   
    14     5    13 1   
    15     5    29 1   
    16     5    33 2   
    17     6    10 1   
    18     6    40 1   
    19     6    41 1   
    20     6    42 1   
    21     7    24 1   
    22     7    27 1   
    23     7    31 1   
    24     7    43 1   
    25     8    11 1   
    26     8    44 1   
    27     8    45 1   
    28     8    46 1   
    29     9    15 1   
    30     9    20 1   
    31     9    47 1   
    32     9    48 1   
    33    10    11 1   
    34    10    13 1   
    35    10    14 1   
    36    11    16 1   
    37    12    13 1   
    38    12    17 1   
    39    12    28 1   
    40    13    49 1   
    41    14    50 1   
    42    14    51 1   
    43    15    18 1   
    44    15    21 1   
    45    15    27 1   
    46    16    18 1   
    47    16    52 1   
    48    16    53 1   
    49    17    30 1   
    50    17    54 1   
    51    17    55 1   
    52    18    56 1   
    53    18    57 1   
    54    19    30 1   
    55    19    32 1   
    56    19    58 1   
    57    20    31 1   
    58    20    59 1   
    59    20    60 1   
    60    21    61 1   
    61    21    62 1   
    62    21    63 1   
    63    22    64 1   
    64    22    65 1   
    65    22    66 1   
    66    23    34 1   
    67    23    35 1   
    68    24    67 1   
    69    24    68 1   
    70    24    69 1   
    71    25    31 1   
    72    25    70 1   
    73    25    71 1   
    74    25    72 1   
    75    26    73 1   
    76    26    74 1   
    77    26    75 1   
    78    26    84 1   
    79    27    76 1   
    80    28    77 1   
    81    28    78 1   
    82    28    79 1   
    83    29    80 1   
    84    30    81 1   
    85    30    82 1   
    86    31    83 1   
    87    32    84 1   
    88    36    84 2   
@<TRIPOS>SUBSTRUCTURE
     1 AF7         1 TEMP              0 ****  ****    0 ROOT
