@<TRIPOS>MOLECULE
AF7
   84    88     1     0     0
SMALL
abcg2


@<TRIPOS>ATOM
      1 C10         13.3190   -21.6880   -20.0910 c6         1 AF7      -0.014700
      2 C13          8.4760   -22.0960   -18.1270 c2         1 AF7      -0.033400
      3 C15         12.4040   -21.3320   -21.2580 c6         1 AF7      -0.064400
      4 C17         14.8440   -21.5280   -20.3510 c6         1 AF7      -0.169000
      5 C20         10.6190   -21.1460   -17.3020 c          1 AF7       0.578300
      6 C21          9.8880   -20.0410   -19.9850 c3         1 AF7      -0.090100
      7 C22          6.6920   -23.8710   -17.5250 c6         1 AF7      -0.044700
      8 C24          9.4520   -23.9100   -19.4970 c3         1 AF7      -0.083100
      9 C28          5.0330   -22.7750   -19.3780 c6         1 AF7      -0.066400
     10 C06         10.3280   -21.4960   -19.7680 c6         1 AF7      -0.009000
     11 C07          9.0690   -22.4150   -19.4850 c6         1 AF7      -0.006800
     12 C08         12.7890   -21.0760   -18.7640 c6         1 AF7       0.000000
     13 C09         11.3220   -21.5990   -18.5680 c6         1 AF7      -0.141700
     14 C11         11.0410   -21.9680   -21.0440 c6         1 AF7      -0.075400
     15 C14          6.0640   -21.7500   -18.8980 c6         1 AF7      -0.034000
     16 C16          7.9530   -22.2170   -20.5440 c6         1 AF7      -0.063400
     17 C18         13.6390   -21.6630   -17.6140 c6         1 AF7      -0.068400
     18 C19          6.8670   -21.2470   -20.1050 c6         1 AF7      -0.070400
     19 C23         15.6110   -22.0910   -19.1450 c6         1 AF7       0.201300
     20 C30          4.2930   -23.4870   -18.2520 c6         1 AF7      -0.068400
     21 C31          5.3450   -20.5570   -18.2670 c3         1 AF7      -0.084100
     22 C32         15.2380   -22.3470   -21.5950 c3         1 AF7      -0.064100
     23 C33         15.3270   -20.0690   -20.6530 c          1 AF7       0.728000
     24 C34          7.6210   -24.4250   -16.4530 c3         1 AF7      -0.090100
     25 C35          4.7810   -25.2960   -16.5810 c3         1 AF7      -0.084100
     26 C37         15.9270   -25.7680   -18.7530 c3         1 AF7      -0.161100
     27 C12          7.0210   -22.3870   -17.8320 c6         1 AF7      -0.021500
     28 C25         12.9050   -19.5440   -18.7410 c3         1 AF7      -0.085100
     29 C26          9.2110   -21.5200   -17.1670 ce         1 AF7      -0.318200
     30 C27         15.1400   -21.5230   -17.8210 c6         1 AF7      -0.087400
     31 C29          5.2160   -23.9300   -17.0980 c6         1 AF7      -0.059700
     32 O01         15.3990   -23.5270   -19.1260 os         1 AF7      -0.465100
     33 O02         11.1510   -20.5390   -16.3870 o          1 AF7      -0.536100
     34 O03         14.7450   -19.4760   -21.5810 o          1 AF7      -0.724000
     35 O04         16.2960   -19.6280   -20.0000 o          1 AF7      -0.724000
     36 O05         17.4010   -23.9500   -18.2140 o          1 AF7      -0.513000
     37 H101        13.1920   -22.7740   -19.9620 hc         1 AF7       0.015700
     38 H152        12.8120   -21.7220   -22.1910 hc         1 AF7       0.060200
     39 H151        12.3260   -20.2550   -21.3980 hc         1 AF7       0.060200
     40 H211         9.3520   -19.6240   -19.1330 hc         1 AF7       0.037367
     41 H213        10.7370   -19.3920   -20.1790 hc         1 AF7       0.037367
     42 H212         9.2350   -19.9600   -20.8540 hc         1 AF7       0.037367
     43 H221         6.8040   -24.4820   -18.4270 hc         1 AF7       0.052700
     44 H241        10.2910   -24.1490   -18.8450 hc         1 AF7       0.035367
     45 H243         8.6140   -24.5230   -19.1750 hc         1 AF7       0.035367
     46 H242         9.7020   -24.2430   -20.5040 hc         1 AF7       0.035367
     47 H281         4.3150   -22.2710   -20.0340 hc         1 AF7       0.037700
     48 H282         5.5280   -23.5210   -20.0060 hc         1 AF7       0.037700
     49 H091        11.4600   -22.6770   -18.3990 hc         1 AF7       0.058700
     50 H111        10.4020   -21.7790   -21.9110 hc         1 AF7       0.026700
     51 H112        11.1980   -23.0470   -21.0090 hc         1 AF7       0.026700
     52 H161         7.4950   -23.1860   -20.7650 hc         1 AF7       0.040700
     53 H162         8.3870   -21.8920   -21.4910 hc         1 AF7       0.040700
     54 H181        13.3770   -21.1880   -16.6710 hc         1 AF7       0.031200
     55 H182        13.3900   -22.7240   -17.5010 hc         1 AF7       0.031200
     56 H191         7.3070   -20.2770   -19.8620 hc         1 AF7       0.043700
     57 H192         6.1780   -21.0630   -20.9350 hc         1 AF7       0.043700
     58 H231        16.6750   -21.9050   -19.2810 h1         1 AF7       0.090700
     59 H302         3.4960   -22.8530   -17.8570 hc         1 AF7       0.032200
     60 H301         3.7890   -24.3610   -18.6730 hc         1 AF7       0.032200
     61 H313         4.7230   -20.8550   -17.4210 hc         1 AF7       0.032033
     62 H311         6.0650   -19.8210   -17.9020 hc         1 AF7       0.032033
     63 H312         4.7010   -20.0590   -18.9960 hc         1 AF7       0.032033
     64 H321        14.8130   -23.3520   -21.5790 hc         1 AF7       0.021700
     65 H322        14.9040   -21.8620   -22.5090 hc         1 AF7       0.021700
     66 H323        16.3250   -22.4460   -21.6620 hc         1 AF7       0.021700
     67 H341         7.4180   -25.4760   -16.2530 hc         1 AF7       0.035033
     68 H343         8.6680   -24.3510   -16.7450 hc         1 AF7       0.035033
     69 H342         7.5060   -23.8770   -15.5140 hc         1 AF7       0.035033
     70 H353         5.2840   -25.5770   -15.6560 hc         1 AF7       0.029367
     71 H351         3.7080   -25.3000   -16.3800 hc         1 AF7       0.029367
     72 H352         4.9770   -26.0750   -17.3220 hc         1 AF7       0.029367
     73 H373        16.6660   -26.4110   -18.2840 hc         1 AF7       0.054367
     74 H371        14.9600   -25.9270   -18.2770 hc         1 AF7       0.054367
     75 H372        15.8230   -26.0580   -19.7990 hc         1 AF7       0.054367
     76 H121         6.8190   -21.8820   -16.8800 hc         1 AF7       0.046700
     77 H251        12.2990   -19.1070   -17.9510 hc         1 AF7       0.044033
     78 H252        13.9320   -19.2330   -18.5580 hc         1 AF7       0.044033
     79 H253        12.6130   -19.0780   -19.6790 hc         1 AF7       0.044033
     80 H261         8.7600   -21.2770   -16.2100 ha         1 AF7       0.181000
     81 H271        15.6680   -22.0120   -16.9980 hc         1 AF7       0.058200
     82 H272        15.4410   -20.4770   -17.7850 hc         1 AF7       0.058200
     83 H291         5.1080   -23.2130   -16.2730 hc         1 AF7       0.042700
     84 C36         16.3410   -24.3260   -18.6540 c          1 AF7       0.595100
@<TRIPOS>BOND
     1     1     3 1   
     2     1     4 1   
     3     1    12 1   
     4     1    37 1   
     5     2    11 1   
     6     2    27 1   
     7     2    29 2   
     8     3    14 1   
     9     3    38 1   
    10     3    39 1   
    11     4    19 1   
    12     4    22 1   
    13     4    23 1   
    14     5    13 1   
    15     5    29 1   
    16     5    33 2   
    17     6    10 1   
    18     6    40 1   
    19     6    41 1   
    20     6    42 1   
    21     7    24 1   
    22     7    27 1   
    23     7    31 1   
    24     7    43 1   
    25     8    11 1   
    26     8    44 1   
    27     8    45 1   
    28     8    46 1   
    29     9    15 1   
    30     9    20 1   
    31     9    47 1   
    32     9    48 1   
    33    10    11 1   
    34    10    13 1   
    35    10    14 1   
    36    11    16 1   
    37    12    13 1   
    38    12    17 1   
    39    12    28 1   
    40    13    49 1   
    41    14    50 1   
    42    14    51 1   
    43    15    18 1   
    44    15    21 1   
    45    15    27 1   
    46    16    18 1   
    47    16    52 1   
    48    16    53 1   
    49    17    30 1   
    50    17    54 1   
    51    17    55 1   
    52    18    56 1   
    53    18    57 1   
    54    19    30 1   
    55    19    32 1   
    56    19    58 1   
    57    20    31 1   
    58    20    59 1   
    59    20    60 1   
    60    21    61 1   
    61    21    62 1   
    62    21    63 1   
    63    22    64 1   
    64    22    65 1   
    65    22    66 1   
    66    23    34 1   
    67    23    35 1   
    68    24    67 1   
    69    24    68 1   
    70    24    69 1   
    71    25    31 1   
    72    25    70 1   
    73    25    71 1   
    74    25    72 1   
    75    26    73 1   
    76    26    74 1   
    77    26    75 1   
    78    26    84 1   
    79    27    76 1   
    80    28    77 1   
    81    28    78 1   
    82    28    79 1   
    83    29    80 1   
    84    30    81 1   
    85    30    82 1   
    86    31    83 1   
    87    32    84 1   
    88    36    84 2   
@<TRIPOS>SUBSTRUCTURE
     1 AF7         1 TEMP              0 ****  ****    0 ROOT
