@<TRIPOS>MOLECULE
AF8
   70    73     1     0     0
SMALL
abcg2


@<TRIPOS>ATOM
      1 C21         21.3040    28.5410    12.5210 c          1 AF8       0.611700
      2 O22         21.3910    29.6410    11.9690 o          1 AF8      -0.601100
      3 C22         22.1450    27.3830    12.0750 ca         1 AF8      -0.106600
      4 C27         23.3810    27.6650    11.4950 ca         1 AF8      -0.151000
      5 C26         24.1920    26.6300    11.0430 ca         1 AF8       0.126100
      6 C25         23.7650    25.3060    11.1530 ca         1 AF8      -0.122000
      7 C24         22.5280    25.0320    11.7170 ca         1 AF8      -0.085000
      8 C23         21.7140    26.0600    12.1840 ca         1 AF8      -0.125000
      9 O27         25.4140    26.8540    10.4810 oh         1 AF8      -0.537100
     10 N11         19.2500    32.1150    15.2230 n3         1 AF8      -0.748500
     11 C12         20.1840    33.0120    15.9370 c3         1 AF8       0.202800
     12 C13         21.6330    32.5210    15.9310 c3         1 AF8      -0.062700
     13 C14         22.4780    33.4970    16.7530 c3         1 AF8      -0.091600
     14 C15         22.1750    32.3730    14.5110 c3         1 AF8      -0.091600
     15 C16         18.9040    30.8630    15.9170 c3         1 AF8       0.210800
     16 C17         19.7300    29.6650    15.4450 c3         1 AF8       0.155300
     17 O18         19.4570    28.6200    16.3820 oh         1 AF8      -0.673000
     18 C19         19.4450    29.2350    13.9990 c3         1 AF8       0.088700
     19 N20         20.4690    28.3010    13.5530 ns         1 AF8      -0.505900
     20 C32         18.0550    28.6090    13.7960 c3         1 AF8      -0.037100
     21 C33         17.5980    29.1960    11.3840 ca         1 AF8      -0.103000
     22 C34         17.4430    28.8450    10.0470 ca         1 AF8      -0.111000
     23 C35         17.5170    27.5090     9.6610 ca         1 AF8      -0.110000
     24 C36         17.7420    26.5300    10.6220 ca         1 AF8      -0.111000
     25 C37         17.8940    26.8860    11.9590 ca         1 AF8      -0.103000
     26 C38         17.8270    28.2210    12.3570 ca         1 AF8      -0.083300
     27 C1          14.9300    37.4460    19.5500 cc         1 AF8       0.271900
     28 N1          13.9890    36.5740    19.8020 nd         1 AF8      -0.343300
     29 O1          14.2400    35.4950    18.9440 os         1 AF8      -0.088700
     30 S1          17.1480    35.0070    16.2580 ss         1 AF8       0.346000
     31 C2          15.7510    34.7690    17.2520 cd         1 AF8      -0.247500
     32 C3          15.3370    35.7700    18.2020 cd         1 AF8       0.260500
     33 C4          15.8200    36.9990    18.5460 cc         1 AF8      -0.234000
     34 C5          16.9050    33.4760    15.5010 cd         1 AF8      -0.465500
     35 C6          15.8060    32.8170    15.9940 cc         1 AF8       0.000000
     36 C7          15.1440    33.5590    16.9940 cc         1 AF8      -0.111000
     37 S8          18.0620    32.8330    14.3520 sy         1 AF8       1.232600
     38 O9          17.3780    31.8020    13.6150 o          1 AF8      -0.539000
     39 O10         18.6490    33.9490    13.6530 o          1 AF8      -0.539000
     40 H27         23.7060    28.6940    11.3990 ha         1 AF8       0.135000
     41 H25         24.4040    24.5110    10.7910 ha         1 AF8       0.131000
     42 H24         22.1900    24.0060    11.7880 ha         1 AF8       0.118000
     43 H23         20.7410    25.8250    12.5910 ha         1 AF8       0.116000
     44 HO27        25.5940    27.8040    10.4500 ho         1 AF8       0.467000
     45 H12         20.1520    33.9840    15.4500 h1         1 AF8       0.053200
     46 H12A        19.8350    33.1340    16.9670 h1         1 AF8       0.053200
     47 H13         21.6740    31.5490    16.4310 hc         1 AF8       0.045700
     48 H14         23.5150    33.1600    16.7970 hc         1 AF8       0.041367
     49 H14A        22.4670    34.4930    16.3010 hc         1 AF8       0.041367
     50 H14B        22.1040    33.5830    17.7750 hc         1 AF8       0.041367
     51 H15         23.2040    32.0100    14.5310 hc         1 AF8       0.041367
     52 H15A        21.5810    31.6760    13.9210 hc         1 AF8       0.041367
     53 H15B        22.1660    33.3400    14.0000 hc         1 AF8       0.041367
     54 H16         19.0880    31.0020    16.9830 h1         1 AF8       0.063200
     55 H16A        17.8440    30.6470    15.7980 h1         1 AF8       0.063200
     56 H17         20.7880    29.9270    15.4950 h1         1 AF8       0.054700
     57 HO18        20.2070    28.0140    16.4010 ho         1 AF8       0.448000
     58 H19         19.5430    30.1150    13.3670 h1         1 AF8       0.103700
     59 HN20        20.4550    27.3730    13.9470 hn         1 AF8       0.308500
     60 H32         17.9670    27.7310    14.4370 hc         1 AF8       0.061200
     61 H32A        17.3010    29.3290    14.1130 hc         1 AF8       0.061200
     62 H33         17.5470    30.2370    11.6790 ha         1 AF8       0.118500
     63 H34         17.2650    29.6150     9.3060 ha         1 AF8       0.110500
     64 H35         17.4000    27.2350     8.6190 ha         1 AF8       0.110000
     65 H36         17.8030    25.4880    10.3320 ha         1 AF8       0.110500
     66 H37         18.0780    26.1200    12.7030 ha         1 AF8       0.118500
     67 H4          16.6780    37.5100    18.1450 ha         1 AF8       0.156000
     68 H6          15.4930    31.8450    15.6440 ha         1 AF8       0.156000
     69 H7          14.2520    33.2270    17.5040 ha         1 AF8       0.157000
     70 H1          14.9480    38.3770    20.0970 h4         1 AF8       0.050100
@<TRIPOS>BOND
     1     1     2 2   
     2     1     3 1   
     3     1    19 1   
     4     3     4 ar  
     5     3     8 ar  
     6     4     5 ar  
     7     4    40 1   
     8     5     6 ar  
     9     5     9 1   
    10     6     7 ar  
    11     6    41 1   
    12     7     8 ar  
    13     7    42 1   
    14     8    43 1   
    15     9    44 1   
    16    10    11 1   
    17    10    15 1   
    18    10    37 1   
    19    11    12 1   
    20    11    45 1   
    21    11    46 1   
    22    12    13 1   
    23    12    14 1   
    24    12    47 1   
    25    13    48 1   
    26    13    49 1   
    27    13    50 1   
    28    14    51 1   
    29    14    52 1   
    30    14    53 1   
    31    15    16 1   
    32    15    54 1   
    33    15    55 1   
    34    16    17 1   
    35    16    18 1   
    36    16    56 1   
    37    17    57 1   
    38    18    19 1   
    39    18    20 1   
    40    18    58 1   
    41    19    59 1   
    42    20    26 1   
    43    20    60 1   
    44    20    61 1   
    45    21    22 ar  
    46    21    26 ar  
    47    21    62 1   
    48    22    23 ar  
    49    22    63 1   
    50    23    24 ar  
    51    23    64 1   
    52    24    25 ar  
    53    24    65 1   
    54    25    26 ar  
    55    25    66 1   
    56    27    28 2   
    57    27    33 1   
    58    27    70 1   
    59    28    29 1   
    60    29    32 1   
    61    30    31 1   
    62    30    34 1   
    63    31    32 1   
    64    31    36 2   
    65    32    33 2   
    66    33    67 1   
    67    34    35 2   
    68    34    37 1   
    69    35    36 1   
    70    35    68 1   
    71    36    69 1   
    72    37    38 2   
    73    37    39 2   
@<TRIPOS>SUBSTRUCTURE
     1 AF8         1 TEMP              0 ****  ****    0 ROOT
