@<TRIPOS>MOLECULE
AF8
   70    73     1     0     0
SMALL
No Charge or Current Charge


@<TRIPOS>ATOM
      1 C21         21.5750    28.5380    12.6700 c          1 AF8       0.611700
      2 O22         21.9720    29.6890    12.5510 o          1 AF8      -0.601100
      3 C22         22.3850    27.3470    12.1860 ca         1 AF8      -0.106600
      4 C27         23.6650    27.5570    11.6180 ca         1 AF8      -0.151000
      5 C26         24.4370    26.4750    11.1600 ca         1 AF8       0.126100
      6 C25         23.9430    25.1670    11.2600 ca         1 AF8      -0.122000
      7 C24         22.6760    24.9380    11.8180 ca         1 AF8      -0.085000
      8 C23         21.9010    26.0170    12.2780 ca         1 AF8      -0.125000
      9 O27         25.6690    26.6890    10.6150 oh         1 AF8      -0.537100
     10 N11         19.2080    32.3170    14.8920 n3         1 AF8      -0.748500
     11 C12         20.0230    33.2400    15.7270 c3         1 AF8       0.202800
     12 C13         21.4590    32.7550    16.0640 c3         1 AF8      -0.062700
     13 C14         22.1320    33.6890    17.0950 c3         1 AF8      -0.091600
     14 C15         22.3340    32.6170    14.7960 c3         1 AF8      -0.091600
     15 C16         18.8750    31.0310    15.5740 c3         1 AF8       0.210800
     16 C17         19.7310    29.8070    15.1200 c3         1 AF8       0.155300
     17 O18         19.6360    28.7490    16.0960 oh         1 AF8      -0.673000
     18 C19         19.3760    29.2610    13.6980 c3         1 AF8       0.088700
     19 N20         20.3560    28.2570    13.2480 ns         1 AF8      -0.505900
     20 C32         17.9450    28.6670    13.5670 c3         1 AF8      -0.037100
     21 C33         17.5060    29.0110    11.0860 ca         1 AF8      -0.103000
     22 C34         17.2580    28.5170     9.7930 ca         1 AF8      -0.111000
     23 C35         17.1620    27.1320     9.5760 ca         1 AF8      -0.110000
     24 C36         17.3130    26.2420    10.6530 ca         1 AF8      -0.111000
     25 C37         17.5600    26.7360    11.9460 ca         1 AF8      -0.103000
     26 C38         17.6600    28.1240    12.1690 ca         1 AF8      -0.083300
     27 C1          15.1890    37.3390    19.7860 cc         1 AF8       0.271900
     28 N1          14.3540    36.4340    20.2760 nd         1 AF8      -0.343300
     29 O1          14.5340    35.2950    19.4050 os         1 AF8      -0.088700
     30 S1          17.1310    35.1810    16.1960 ss         1 AF8       0.346000
     31 C2          15.9240    34.7650    17.4230 cd         1 AF8      -0.247500
     32 C3          15.4720    35.6370    18.4680 cd         1 AF8       0.260500
     33 C4          15.9110    36.9010    18.6630 cc         1 AF8      -0.234000
     34 C5          16.9710    33.5560    15.5220 cd         1 AF8      -0.465500
     35 C6          16.0270    32.8070    16.1860 cc         1 AF8       0.000000
     36 C7          15.4370    33.4910    17.2760 cc         1 AF8      -0.111000
     37 S8          17.8970    33.0720    14.0990 sy         1 AF8       1.232600
     38 O9          17.1880    32.0200    13.3660 o          1 AF8      -0.539000
     39 O10         18.4350    34.2480    13.4080 o          1 AF8      -0.539000
     40 H27         24.0580    28.5680    11.5350 ha         1 AF8       0.135000
     41 H25         24.5410    24.3320    10.9050 ha         1 AF8       0.131000
     42 H24         22.2930    23.9230    11.8940 ha         1 AF8       0.118000
     43 H23         20.9230    25.7990    12.7000 ha         1 AF8       0.116000
     44 HO27        25.8530    27.6530    10.6220 ho         1 AF8       0.467000
     45 H12         20.1340    34.2110    15.2270 h1         1 AF8       0.053200
     46 H12A        19.4970    33.4360    16.6720 h1         1 AF8       0.053200
     47 H13         21.3900    31.7690    16.5380 hc         1 AF8       0.045700
     48 H14         23.1310    33.3190    17.3590 hc         1 AF8       0.041367
     49 H14A        22.2370    34.7050    16.6950 hc         1 AF8       0.041367
     50 H14B        21.5390    33.7420    18.0160 hc         1 AF8       0.041367
     51 H15         23.3150    32.1960    15.0440 hc         1 AF8       0.041367
     52 H15A        21.8590    31.9590    14.0600 hc         1 AF8       0.041367
     53 H15B        22.4890    33.5940    14.3220 hc         1 AF8       0.041367
     54 H16         19.0080    31.1480    16.6580 h1         1 AF8       0.063200
     55 H16A        17.8190    30.7670    15.4500 h1         1 AF8       0.063200
     56 H17         20.7730    30.1470    15.0780 h1         1 AF8       0.054700
     57 HO18        20.2460    28.0390    15.8000 ho         1 AF8       0.448000
     58 H19         19.4370    30.1150    13.0080 h1         1 AF8       0.103700
     59 HN20        20.0820    27.2840    13.2680 hn         1 AF8       0.308500
     60 H32         17.8120    27.8720    14.3110 hc         1 AF8       0.061200
     61 H32A        17.1970    29.4280    13.8110 hc         1 AF8       0.061200
     62 H33         17.5790    30.0850    11.2450 ha         1 AF8       0.118500
     63 H34         17.1400    29.2070     8.9610 ha         1 AF8       0.110500
     64 H35         16.9700    26.7500     8.5760 ha         1 AF8       0.110000
     65 H36         17.2380    25.1700    10.4860 ha         1 AF8       0.110500
     66 H37         17.6760    26.0370    12.7710 ha         1 AF8       0.118500
     67 H4          16.6450    37.4670    18.1020 ha         1 AF8       0.156000
     68 H6          15.7440    31.7910    15.9200 ha         1 AF8       0.156000
     69 H7          14.6810    33.0340    17.9080 ha         1 AF8       0.157000
     70 H1          15.2510    38.3060    20.2670 h4         1 AF8       0.050100
@<TRIPOS>BOND
     1     1     2 2   
     2     1     3 1   
     3     1    19 1   
     4     3     4 ar  
     5     3     8 ar  
     6     4     5 ar  
     7     4    40 1   
     8     5     6 ar  
     9     5     9 1   
    10     6     7 ar  
    11     6    41 1   
    12     7     8 ar  
    13     7    42 1   
    14     8    43 1   
    15     9    44 1   
    16    10    11 1   
    17    10    15 1   
    18    10    37 1   
    19    11    12 1   
    20    11    45 1   
    21    11    46 1   
    22    12    13 1   
    23    12    14 1   
    24    12    47 1   
    25    13    48 1   
    26    13    49 1   
    27    13    50 1   
    28    14    51 1   
    29    14    52 1   
    30    14    53 1   
    31    15    16 1   
    32    15    54 1   
    33    15    55 1   
    34    16    17 1   
    35    16    18 1   
    36    16    56 1   
    37    17    57 1   
    38    18    19 1   
    39    18    20 1   
    40    18    58 1   
    41    19    59 1   
    42    20    26 1   
    43    20    60 1   
    44    20    61 1   
    45    21    22 ar  
    46    21    26 ar  
    47    21    62 1   
    48    22    23 ar  
    49    22    63 1   
    50    23    24 ar  
    51    23    64 1   
    52    24    25 ar  
    53    24    65 1   
    54    25    26 ar  
    55    25    66 1   
    56    27    28 2   
    57    27    33 1   
    58    27    70 1   
    59    28    29 1   
    60    29    32 1   
    61    30    31 1   
    62    30    34 1   
    63    31    32 1   
    64    31    36 2   
    65    32    33 2   
    66    33    67 1   
    67    34    35 2   
    68    34    37 1   
    69    35    36 1   
    70    35    68 1   
    71    36    69 1   
    72    37    38 2   
    73    37    39 2   
@<TRIPOS>SUBSTRUCTURE
     1 AF8         1 TEMP              0 ****  ****    0 ROOT
