@<TRIPOS>MOLECULE
AFA
   38    37     1     0     0
SMALL
bcc


@<TRIPOS>ATOM
      1 N           14.6440    22.9850    27.1640 ns         1 AFA      -0.521900
      2 CA          15.0330    22.3140    25.9470 c3         1 AFA      -0.039300
      3 CB          15.0750    20.8100    26.1920 c3         1 AFA      -0.151400
      4 CG          16.0910    20.4220    27.2480 c          1 AFA       0.666100
      5 OD1         17.2250    20.8780    27.2520 o          1 AFA      -0.613100
      6 ND2         15.6620    19.5320    28.1570 nt         1 AFA      -0.695000
      7 C           14.1120    22.6380    24.7320 c          1 AFA       0.926600
      8 O           13.0950    23.3170    24.9460 o          1 AFA      -0.824300
      9 OXT         14.5040    22.1620    23.6490 o          1 AFA      -0.824300
     10 C1          14.9230    24.2820    27.4030 c          1 AFA       0.670300
     11 O1          15.6730    24.9380    26.6850 o          1 AFA      -0.615100
     12 C2          14.2690    24.8150    28.6180 ce         1 AFA      -0.193200
     13 C3          14.3620    26.0660    29.1000 cf         1 AFA      -0.099000
     14 C4          15.1050    27.2010    28.5880 cf         1 AFA      -0.103000
     15 C5          15.0490    28.3960    29.1910 c2         1 AFA      -0.192200
     16 C6          15.7790    29.6100    28.7250 c3         1 AFA      -0.034200
     17 C7          16.8380    30.1280    29.7120 c3         1 AFA      -0.060700
     18 C8          17.5970    31.2940    29.0860 c3         1 AFA      -0.085100
     19 C9          16.2280    30.5430    31.0460 c3         1 AFA      -0.085100
     20 H           13.9110    22.5570    27.7080 hn         1 AFA       0.284500
     21 HA          16.0410    22.6440    25.6920 h1         1 AFA       0.089700
     22 HB2         15.3590    20.3160    25.2610 hc         1 AFA       0.062700
     23 HB3         14.0780    20.4390    26.4470 hc         1 AFA       0.062700
     24 HD21        14.7290    19.1610    28.1420 hn         1 AFA       0.296000
     25 HD22        16.2870    19.1880    28.8680 hn         1 AFA       0.296000
     26 H2          13.6430    24.1230    29.1700 ha         1 AFA       0.111000
     27 H3          13.7960    26.2680    30.0050 ha         1 AFA       0.095000
     28 H4          15.7090    27.0760    27.7000 ha         1 AFA       0.164000
     29 H5          14.4300    28.5020    30.0790 ha         1 AFA       0.103000
     30 H61         16.2560    29.3990    27.7640 hc         1 AFA       0.043700
     31 H62         15.0560    30.4160    28.5500 hc         1 AFA       0.043700
     32 H7          17.5500    29.3150    29.8940 hc         1 AFA       0.051700
     33 H81         16.9250    32.1310    28.8860 hc         1 AFA       0.027867
     34 H82         18.0630    31.0080    28.1420 hc         1 AFA       0.027867
     35 H83         18.3840    31.6550    29.7500 hc         1 AFA       0.027867
     36 H91         16.9930    30.9360    31.7170 hc         1 AFA       0.027867
     37 H92         15.4800    31.3270    30.9010 hc         1 AFA       0.027867
     38 H93         15.7420    29.7110    31.5580 hc         1 AFA       0.027867
@<TRIPOS>BOND
     1     1     2 1   
     2     1    10 1   
     3     1    20 1   
     4     2     3 1   
     5     2     7 1   
     6     2    21 1   
     7     3     4 1   
     8     3    22 1   
     9     3    23 1   
    10     4     5 2   
    11     4     6 1   
    12     6    24 1   
    13     6    25 1   
    14     7     8 1   
    15     7     9 1   
    16    10    11 2   
    17    10    12 1   
    18    12    13 2   
    19    12    26 1   
    20    13    14 1   
    21    13    27 1   
    22    14    15 2   
    23    14    28 1   
    24    15    16 1   
    25    15    29 1   
    26    16    17 1   
    27    16    30 1   
    28    16    31 1   
    29    17    18 1   
    30    17    19 1   
    31    17    32 1   
    32    18    33 1   
    33    18    34 1   
    34    18    35 1   
    35    19    36 1   
    36    19    37 1   
    37    19    38 1   
@<TRIPOS>SUBSTRUCTURE
     1 AFA         1 TEMP              0 ****  ****    0 ROOT
