@<TRIPOS>MOLECULE
AFA
   38    37     1     0     0
SMALL
No Charge or Current Charge


@<TRIPOS>ATOM
      1 N           14.0210    23.1520    26.6740 ns         1 AFA      -0.454900
      2 CA          14.7760    22.2260    25.7930 c3         1 AFA      -0.039300
      3 CB          15.6380    21.2220    26.6070 c3         1 AFA      -0.151400
      4 CG          16.7550    21.9070    27.3990 c          1 AFA       0.599100
      5 OD1         17.8220    22.2320    26.9070 o          1 AFA      -0.613100
      6 ND2         16.5200    22.1080    28.7150 nt         1 AFA      -0.628000
      7 C           13.8050    21.4950    24.8180 c          1 AFA       0.716000
      8 O           12.8550    20.8840    25.2900 o          1 AFA      -0.719000
      9 OXT         13.9920    21.6210    23.6160 o          1 AFA      -0.719000
     10 C1          14.4240    24.4190    27.0410 c          1 AFA       0.603300
     11 O1          15.4690    24.9090    26.6410 o          1 AFA      -0.615100
     12 C2          13.4600    25.1090    27.9560 ce         1 AFA      -0.243200
     13 C3          13.5450    26.3590    28.5090 cf         1 AFA      -0.149000
     14 C4          14.6080    27.3460    28.3480 cf         1 AFA      -0.153000
     15 C5          14.5910    28.5570    28.9480 c2         1 AFA      -0.242200
     16 C6          15.6680    29.6160    28.8200 c3         1 AFA      -0.034200
     17 C7          16.9280    29.3160    29.6730 c3         1 AFA      -0.060700
     18 C8          18.0550    30.3330    29.3880 c3         1 AFA      -0.085100
     19 C9          16.6090    29.2490    31.1860 c3         1 AFA      -0.085100
     20 H           13.1260    22.8390    27.0300 hn         1 AFA       0.284500
     21 HA          15.4500    22.8200    25.1610 h1         1 AFA       0.089700
     22 HB2         16.0950    20.5150    25.9050 hc         1 AFA       0.062700
     23 HB3         14.9690    20.6900    27.2940 hc         1 AFA       0.062700
     24 HD21        15.6370    21.8330    29.1170 hn         1 AFA       0.296000
     25 HD22        17.2280    22.5510    29.2810 hn         1 AFA       0.296000
     26 H2          12.5770    24.5230    28.2050 ha         1 AFA       0.161000
     27 H3          12.7180    26.6630    29.1540 ha         1 AFA       0.145000
     28 H4          15.4590    27.0910    27.7140 ha         1 AFA       0.214000
     29 H5          13.7530    28.8340    29.5890 ha         1 AFA       0.153000
     30 H61         15.9630    29.7070    27.7670 hc         1 AFA       0.043700
     31 H62         15.2630    30.5940    29.1070 hc         1 AFA       0.043700
     32 H7          17.3020    28.3280    29.3740 hc         1 AFA       0.051700
     33 H81         17.7450    31.3480    29.6650 hc         1 AFA       0.027867
     34 H82         18.3180    30.3330    28.3230 hc         1 AFA       0.027867
     35 H83         18.9580    30.0820    29.9570 hc         1 AFA       0.027867
     36 H91         17.5150    29.0230    31.7620 hc         1 AFA       0.027867
     37 H92         16.2060    30.2050    31.5420 hc         1 AFA       0.027867
     38 H93         15.8740    28.4640    31.3990 hc         1 AFA       0.027867
@<TRIPOS>BOND
     1     1     2 1   
     2     1    10 1   
     3     1    20 1   
     4     2     3 1   
     5     2     7 1   
     6     2    21 1   
     7     3     4 1   
     8     3    22 1   
     9     3    23 1   
    10     4     5 2   
    11     4     6 1   
    12     6    24 1   
    13     6    25 1   
    14     7     8 1   
    15     7     9 1   
    16    10    11 2   
    17    10    12 1   
    18    12    13 2   
    19    12    26 1   
    20    13    14 1   
    21    13    27 1   
    22    14    15 2   
    23    14    28 1   
    24    15    16 1   
    25    15    29 1   
    26    16    17 1   
    27    16    30 1   
    28    16    31 1   
    29    17    18 1   
    30    17    19 1   
    31    17    32 1   
    32    18    33 1   
    33    18    34 1   
    34    18    35 1   
    35    19    36 1   
    36    19    37 1   
    37    19    38 1   
@<TRIPOS>SUBSTRUCTURE
     1 AFA         1 TEMP              0 ****  ****    0 ROOT
