@<TRIPOS>MOLECULE
AFB
   44    45     1     0     0
SMALL
bcc


@<TRIPOS>ATOM
      1 OC7          1.7390    -0.5270    -4.9340 oh         1 AFB      -0.594800
      2 C7           1.1930    -1.8140    -4.7080 c5         1 AFB       0.144100
      3 C8           2.0290    -2.6310    -3.7310 c5         1 AFB      -0.112400
      4 C6          -0.1080    -1.6350    -3.9450 c5         1 AFB      -0.077400
      5 C5           0.3460    -1.3070    -2.5160 c5         1 AFB      -0.095700
      6 C9           1.6720    -2.0960    -2.3210 c5         1 AFB      -0.016500
      7 C10          2.7680    -1.2700    -1.7220 c2         1 AFB      -0.173200
      8 C11          3.4650    -1.6020    -0.6370 c2         1 AFB      -0.160200
      9 C12          4.5760    -0.7880    -0.0510 c3         1 AFB      -0.038200
     10 C13          4.3330    -0.3030     1.3850 c3         1 AFB      -0.069400
     11 C14          4.3440    -1.4040     2.4630 c3         1 AFB      -0.090400
     12 C15          3.0460    -1.5690     3.2410 c3         1 AFB       0.155100
     13 C16          3.1590    -2.5800     4.3650 c3         1 AFB      -0.099100
     14 O16          2.0370    -2.0490     2.3290 os         1 AFB      -0.434900
     15 C1           1.0570    -1.2600     1.9100 c          1 AFB       0.656300
     16 OC1          0.8080    -0.1670     2.3610 o          1 AFB      -0.542000
     17 C2           0.3540    -1.8900     0.7770 ce         1 AFB      -0.222200
     18 C3          -0.2520    -1.1380    -0.1350 c2         1 AFB      -0.076200
     19 C4          -0.7180    -1.6440    -1.4590 c3         1 AFB       0.180300
     20 OC4         -1.9540    -1.0180    -1.7300 oh         1 AFB      -0.586800
     21 HO7          2.6390    -0.6380    -5.2560 ho         1 AFB       0.402000
     22 HC7          1.0430    -2.3430    -5.6580 h1         1 AFB       0.040700
     23 H81          3.0990    -2.5840    -3.9450 hc         1 AFB       0.050200
     24 H82          1.7390    -3.6810    -3.8130 hc         1 AFB       0.050200
     25 H61         -0.6560    -2.5830    -3.9670 hc         1 AFB       0.052700
     26 H62         -0.7550    -0.8730    -4.3850 hc         1 AFB       0.052700
     27 H5           0.5530    -0.2330    -2.4510 hc         1 AFB       0.082700
     28 H9           1.4960    -2.9490    -1.6580 hc         1 AFB       0.048700
     29 H101         3.0060    -0.3420    -2.2410 ha         1 AFB       0.124000
     30 H111         3.2200    -2.5330    -0.1330 ha         1 AFB       0.123000
     31 H121         5.5030    -1.3730    -0.0610 hc         1 AFB       0.043200
     32 H122         4.7580     0.0820    -0.6870 hc         1 AFB       0.043200
     33 H131         5.1140     0.4220     1.6190 hc         1 AFB       0.046200
     34 H132         3.3980     0.2640     1.4160 hc         1 AFB       0.046200
     35 H141         4.6180    -2.3720     2.0290 hc         1 AFB       0.048700
     36 H142         5.1230    -1.1860     3.1980 hc         1 AFB       0.048700
     37 H15          2.7370    -0.6040     3.6480 h1         1 AFB       0.069700
     38 H161         3.8960    -2.2410     5.0930 hc         1 AFB       0.046033
     39 H162         2.2080    -2.6970     4.8860 hc         1 AFB       0.046033
     40 H163         3.4750    -3.5560     3.9960 hc         1 AFB       0.046033
     41 H21          0.4710    -2.9590     0.6390 ha         1 AFB       0.143000
     42 H31         -0.3180    -0.0630     0.0100 ha         1 AFB       0.155000
     43 HC4         -0.8290    -2.7380    -1.4220 h1         1 AFB       0.034700
     44 HO4         -2.2870    -1.3510    -2.5700 ho         1 AFB       0.407000
@<TRIPOS>BOND
     1     1     2 1   
     2     1    21 1   
     3     2     3 1   
     4     2     4 1   
     5     2    22 1   
     6     3     6 1   
     7     3    23 1   
     8     3    24 1   
     9     4     5 1   
    10     4    25 1   
    11     4    26 1   
    12     5     6 1   
    13     5    19 1   
    14     5    27 1   
    15     6     7 1   
    16     6    28 1   
    17     7     8 2   
    18     7    29 1   
    19     8     9 1   
    20     8    30 1   
    21     9    10 1   
    22     9    31 1   
    23     9    32 1   
    24    10    11 1   
    25    10    33 1   
    26    10    34 1   
    27    11    12 1   
    28    11    35 1   
    29    11    36 1   
    30    12    13 1   
    31    12    14 1   
    32    12    37 1   
    33    13    38 1   
    34    13    39 1   
    35    13    40 1   
    36    14    15 1   
    37    15    16 2   
    38    15    17 1   
    39    17    18 2   
    40    17    41 1   
    41    18    19 1   
    42    18    42 1   
    43    19    20 1   
    44    19    43 1   
    45    20    44 1   
@<TRIPOS>SUBSTRUCTURE
     1 AFB         1 TEMP              0 ****  ****    0 ROOT
