@<TRIPOS>MOLECULE
AFB
   44    45     1     0     0
SMALL
No Charge or Current Charge


@<TRIPOS>ATOM
      1 OC7          1.5080    -0.5370    -5.1550 oh         1 AFB      -0.657000
      2 C7           1.1690    -1.8750    -4.7860 c5         1 AFB       0.167300
      3 C8           2.1930    -2.4870    -3.7900 c5         1 AFB      -0.112400
      4 C6          -0.1370    -1.9500    -3.9560 c5         1 AFB      -0.077400
      5 C5           0.3180    -1.3470    -2.5930 c5         1 AFB      -0.095700
      6 C9           1.6770    -2.1020    -2.3580 c5         1 AFB      -0.016500
      7 C10          2.7010    -1.1650    -1.7130 c2         1 AFB      -0.223200
      8 C11          3.4710    -1.6010    -0.6990 c2         1 AFB      -0.210200
      9 C12          4.5840    -0.8040    -0.0400 c3         1 AFB      -0.038200
     10 C13          4.2690    -0.3830     1.4140 c3         1 AFB      -0.069400
     11 C14          4.2480    -1.5510     2.4430 c3         1 AFB      -0.090400
     12 C15          3.0120    -1.6060     3.3850 c3         1 AFB       0.178300
     13 C16          3.1890    -2.6340     4.5180 c3         1 AFB      -0.099100
     14 O16          1.8910    -2.0600     2.6040 os         1 AFB      -0.458100
     15 C1           1.0570    -1.1410     2.0290 c          1 AFB       0.607300
     16 OC1          0.9570     0.0290     2.3730 o          1 AFB      -0.493000
     17 C2           0.4560    -1.7030     0.7980 ce         1 AFB      -0.272200
     18 C3          -0.2140    -0.9710    -0.1220 c2         1 AFB      -0.126200
     19 C4          -0.7220    -1.4900    -1.4460 c3         1 AFB       0.203500
     20 OC4         -1.9170    -0.7830    -1.7830 oh         1 AFB      -0.649000
     21 HO7          2.3860    -0.5800    -5.5930 ho         1 AFB       0.441000
     22 HC7          1.0910    -2.4940    -5.6920 h1         1 AFB       0.040700
     23 H81          3.2170    -2.1490    -3.9850 hc         1 AFB       0.050200
     24 H82          2.2110    -3.5780    -3.8960 hc         1 AFB       0.050200
     25 H61         -0.4820    -2.9850    -3.8490 hc         1 AFB       0.052700
     26 H62         -0.9500    -1.3820    -4.4220 hc         1 AFB       0.052700
     27 H5           0.4940    -0.2700    -2.7080 hc         1 AFB       0.082700
     28 H9           1.5280    -3.0110    -1.7620 hc         1 AFB       0.048700
     29 H101         2.8410    -0.1550    -2.1050 ha         1 AFB       0.174000
     30 H111         3.3570    -2.6150    -0.3110 ha         1 AFB       0.173000
     31 H121         5.5190    -1.3790    -0.0560 hc         1 AFB       0.043200
     32 H122         4.7810     0.1060    -0.6220 hc         1 AFB       0.043200
     33 H131         5.0300     0.3400     1.7360 hc         1 AFB       0.046200
     34 H132         3.3270     0.1710     1.4200 hc         1 AFB       0.046200
     35 H141         4.3310    -2.5120     1.9220 hc         1 AFB       0.048700
     36 H142         5.1530    -1.4740     3.0590 hc         1 AFB       0.048700
     37 H15          2.8360    -0.6210     3.8410 h1         1 AFB       0.069700
     38 H161         4.0400    -2.3630     5.1540 hc         1 AFB       0.046033
     39 H162         2.2920    -2.6680     5.1480 hc         1 AFB       0.046033
     40 H163         3.3670    -3.6380     4.1120 hc         1 AFB       0.046033
     41 H21          0.6520    -2.7590     0.6290 ha         1 AFB       0.193000
     42 H31         -0.3770     0.0980     0.0280 ha         1 AFB       0.205000
     43 HC4         -0.9510    -2.5580    -1.3310 h1         1 AFB       0.034700
     44 HO4         -2.2580    -1.1850    -2.6110 ho         1 AFB       0.446000
@<TRIPOS>BOND
     1     1     2 1   
     2     1    21 1   
     3     2     3 1   
     4     2     4 1   
     5     2    22 1   
     6     3     6 1   
     7     3    23 1   
     8     3    24 1   
     9     4     5 1   
    10     4    25 1   
    11     4    26 1   
    12     5     6 1   
    13     5    19 1   
    14     5    27 1   
    15     6     7 1   
    16     6    28 1   
    17     7     8 2   
    18     7    29 1   
    19     8     9 1   
    20     8    30 1   
    21     9    10 1   
    22     9    31 1   
    23     9    32 1   
    24    10    11 1   
    25    10    33 1   
    26    10    34 1   
    27    11    12 1   
    28    11    35 1   
    29    11    36 1   
    30    12    13 1   
    31    12    14 1   
    32    12    37 1   
    33    13    38 1   
    34    13    39 1   
    35    13    40 1   
    36    14    15 1   
    37    15    16 2   
    38    15    17 1   
    39    17    18 2   
    40    17    41 1   
    41    18    19 1   
    42    18    42 1   
    43    19    20 1   
    44    19    43 1   
    45    20    44 1   
@<TRIPOS>SUBSTRUCTURE
     1 AFB         1 TEMP              0 ****  ****    0 ROOT
