@<TRIPOS>MOLECULE
AFC
   47    46     1     0     0
SMALL
No Charge or Current Charge


@<TRIPOS>ATOM
      1 N            4.9900    -1.2990    -0.4240 n2         1 AFC      -0.285000
      2 CA           4.7120     0.1160    -0.1790 c3         1 AFC      -0.048000
      3 CB           3.2650     0.4520    -0.6220 c3         1 AFC      -0.162000
      4 O            7.4900     1.2460     0.7050 o          1 AFC      -0.577500
      5 CD           2.1670    -0.2850     0.1830 c3         1 AFC      -0.149000
      6 CE           0.7380     0.1160    -0.2450 c3         1 AFC      -0.154000
      7 CF          -0.3590    -0.6240     0.5520 c3         1 AFC      -0.153000
      8 CI          -1.7880    -0.2210     0.1240 c3         1 AFC      -0.152000
      9 CJ          -2.8850    -0.9610     0.9160 c3         1 AFC      -0.121000
     10 CK          -4.3130    -0.5330     0.4610 c3         1 AFC      -0.682000
     11 Cl          -5.7460    -1.4310     1.3830 cl         1 AFC       1.533000
     12 CM          -6.8010    -0.0850     0.4240 c3         1 AFC      -0.612000
     13 CN2         -7.0260     1.2320     1.2550 c3         1 AFC      -0.196000
     14 CN1         -8.1610    -0.6830    -0.0730 c3         1 AFC      -0.124000
     15 CO1         -8.9300     0.2440    -1.0370 c3         1 AFC      -0.203000
     16 CG           5.7630     0.9830    -0.9180 c3         1 AFC      -0.231000
     17 H            4.2100    -1.9090    -0.6780 hn         1 AFC       0.057000
     18 HA           4.7960     0.3280     0.8970 h1         1 AFC       0.102000
     19 HG1          5.7240     0.7610    -1.9910 hc         1 AFC       0.049500
     20 HG2          5.4790     2.0380    -0.8210 hc         1 AFC       0.049500
     21 HB2          3.1070     1.5320    -0.5140 hc         1 AFC       0.057500
     22 HB3          3.1480     0.2250    -1.6900 hc         1 AFC       0.057500
     23 HD1          2.2860    -1.3690     0.0610 hc         1 AFC       0.083000
     24 HD2          2.2980    -0.0710     1.2520 hc         1 AFC       0.083000
     25 HE1          0.6120     1.1980    -0.1150 hc         1 AFC       0.068500
     26 HE2          0.6100    -0.0930    -1.3150 hc         1 AFC       0.068500
     27 HF1         -0.2330    -1.7060     0.4210 hc         1 AFC       0.077000
     28 HF2         -0.2300    -0.4170     1.6220 hc         1 AFC       0.077000
     29 HI1         -1.9150     0.8610     0.2580 hc         1 AFC       0.077500
     30 HI2         -1.9160    -0.4250    -0.9470 hc         1 AFC       0.077500
     31 HJ1         -2.7530    -2.0440     0.7800 hc         1 AFC       0.081000
     32 HJ2         -2.7520    -0.7550     1.9880 hc         1 AFC       0.081000
     33 HK1         -4.4330     0.5440     0.6250 h1         1 AFC       0.127500
     34 HK2         -4.4390    -0.7680    -0.6030 h1         1 AFC       0.127500
     35 HL1         -4.7440     1.8600    -1.4430 ha         1 AFC      -0.307000
     36 HL2         -4.7440     1.8600    -1.4440 ha         1 AFC      -0.307000
     37 HM          -6.2560     0.1790    -0.4890 h1         1 AFC       0.137000
     38 HN21        -7.4820     2.0190     0.6420 hc         1 AFC       0.079000
     39 HN22        -7.6850     1.0560     2.1170 hc         1 AFC       0.079000
     40 HN23        -6.0820     1.6410     1.6380 hc         1 AFC       0.079000
     41 HN11        -7.9750    -1.6300    -0.6000 hc         1 AFC       0.080500
     42 HN12        -8.8090    -0.9270     0.7820 hc         1 AFC       0.080500
     43 HO11        -9.2900     1.1440    -0.5250 hc         1 AFC       0.075000
     44 HO12        -8.2930     0.5530    -1.8740 hc         1 AFC       0.075000
     45 HO13        -9.8040    -0.2750    -1.4490 hc         1 AFC       0.075000
     46 OXT          8.0510     0.3310    -1.1030 o          1 AFC      -0.577500
     47 C            7.1770     0.8140    -0.3960 c          1 AFC       0.347000
@<TRIPOS>BOND
     1     1     2 1   
     2     1    17 1   
     3     2     3 1   
     4     2    16 1   
     5     2    18 1   
     6     3     5 1   
     7     3    21 1   
     8     3    22 1   
     9     4    47 1   
    10     5     6 1   
    11     5    23 1   
    12     5    24 1   
    13     6     7 1   
    14     6    25 1   
    15     6    26 1   
    16     7     8 1   
    17     7    27 1   
    18     7    28 1   
    19     8     9 1   
    20     8    29 1   
    21     8    30 1   
    22     9    10 1   
    23     9    31 1   
    24     9    32 1   
    25    10    11 1   
    26    10    33 1   
    27    10    34 1   
    28    11    12 1   
    29    11    35 1   
    30    11    36 1   
    31    12    13 1   
    32    12    14 1   
    33    12    37 1   
    34    13    38 1   
    35    13    39 1   
    36    13    40 1   
    37    14    15 1   
    38    14    41 1   
    39    14    42 1   
    40    15    43 1   
    41    15    44 1   
    42    15    45 1   
    43    16    19 1   
    44    16    20 1   
    45    16    47 1   
    46    46    47 1   
@<TRIPOS>SUBSTRUCTURE
     1 AFC         1 TEMP              0 ****  ****    0 ROOT
