@<TRIPOS>MOLECULE
AFC
   47    46     1     0     0
SMALL
abcg2


@<TRIPOS>ATOM
      1 N            4.8260    -1.5160    -0.2050 n2         1 AFC      -0.285000
      2 CA           4.7290    -0.0800     0.0490 c3         1 AFC      -0.048000
      3 CB           3.3810     0.4420    -0.4400 c3         1 AFC      -0.162000
      4 O            7.4090    -0.3440     0.9180 o          1 AFC      -0.577500
      5 CD           2.1660    -0.2350     0.1810 c3         1 AFC      -0.149000
      6 CE           0.8550     0.4000    -0.2650 c3         1 AFC      -0.154000
      7 CF          -0.3850    -0.3410     0.2210 c3         1 AFC      -0.153000
      8 CI          -1.6800     0.4020    -0.0900 c3         1 AFC      -0.152000
      9 CJ          -2.9360    -0.4140     0.1890 c3         1 AFC      -0.121000
     10 CK          -4.2220     0.3760    -0.0230 c3         1 AFC      -0.682000
     11 CL          -5.4750    -0.4690     0.1720 cl         1 AFC       1.533000
     12 CM          -6.7980     0.2510    -0.1060 c3         1 AFC      -0.612000
     13 CN2         -7.0260     1.4100     0.8610 c3         1 AFC      -0.196000
     14 CN1         -7.9540    -0.7530    -0.0660 c3         1 AFC      -0.124000
     15 CO1         -9.2970    -0.1980    -0.5190 c3         1 AFC      -0.203000
     16 CG           5.8670     0.7290    -0.5690 c3         1 AFC      -0.231000
     17 H            4.8120    -1.6700    -1.2080 hn         1 AFC       0.057000
     18 HA           4.7660     0.0520     1.1360 h1         1 AFC       0.102000
     19 HG1          5.8310     0.6230    -1.6600 hc         1 AFC       0.049500
     20 HG2          5.7030     1.7980    -0.3810 hc         1 AFC       0.049500
     21 HB2          3.3330     1.5190    -0.2420 hc         1 AFC       0.057500
     22 HB3          3.3320     0.3410    -1.5320 hc         1 AFC       0.057500
     23 HD1          2.1700    -1.2980    -0.0730 hc         1 AFC       0.083000
     24 HD2          2.2390    -0.1850     1.2730 hc         1 AFC       0.083000
     25 HE1          0.8190     1.4390     0.0830 hc         1 AFC       0.068500
     26 HE2          0.8290     0.4520    -1.3590 hc         1 AFC       0.068500
     27 HF1         -0.4120    -1.3360    -0.2370 hc         1 AFC       0.077000
     28 HF2         -0.3170    -0.5080     1.3010 hc         1 AFC       0.077000
     29 HI1         -1.7080     1.3280     0.4930 hc         1 AFC       0.077500
     30 HI2         -1.6820     0.7080    -1.1420 hc         1 AFC       0.077500
     31 HJ1         -2.9400    -1.2980    -0.4590 hc         1 AFC       0.081000
     32 HJ2         -2.9100    -0.7930     1.2170 hc         1 AFC       0.081000
     33 HK1         -4.2270     1.2290     0.6620 h1         1 AFC       0.127500
     34 HK2         -4.2270     0.8000    -1.0340 h1         1 AFC       0.127500
     35 HL1         -5.4120    -1.3400    -0.4900 ha         1 AFC      -0.307000
     36 HL2         -5.4940    -0.8670     1.1940 ha         1 AFC      -0.307000
     37 HM          -6.7490     0.6600    -1.1250 h1         1 AFC       0.137000
     38 HN21        -7.9640     1.9280     0.6580 hc         1 AFC       0.079000
     39 HN22        -7.0650     1.0470     1.8910 hc         1 AFC       0.079000
     40 HN23        -6.2310     2.1530     0.8010 hc         1 AFC       0.079000
     41 HN11        -7.6940    -1.6070    -0.7000 hc         1 AFC       0.080500
     42 HN12        -8.0450    -1.1510     0.9520 hc         1 AFC       0.080500
     43 HO11        -9.6470     0.6100     0.1240 hc         1 AFC       0.075000
     44 HO12        -9.2370     0.1950    -1.5360 hc         1 AFC       0.075000
     45 HO13       -10.0640    -0.9730    -0.5110 hc         1 AFC       0.075000
     46 OXT          8.2250     0.9110    -0.7280 o          1 AFC      -0.577500
     47 C            7.2890     0.3930    -0.0840 c2         1 AFC       0.347000
@<TRIPOS>BOND
     1     1     2 1   
     2     1    17 1   
     3     2     3 1   
     4     2    16 1   
     5     2    18 1   
     6     3     5 1   
     7     3    21 1   
     8     3    22 1   
     9     4    47 1   
    10     5     6 1   
    11     5    23 1   
    12     5    24 1   
    13     6     7 1   
    14     6    25 1   
    15     6    26 1   
    16     7     8 1   
    17     7    27 1   
    18     7    28 1   
    19     8     9 1   
    20     8    29 1   
    21     8    30 1   
    22     9    10 1   
    23     9    31 1   
    24     9    32 1   
    25    10    11 1   
    26    10    33 1   
    27    10    34 1   
    28    11    12 1   
    29    11    35 1   
    30    11    36 1   
    31    12    13 1   
    32    12    14 1   
    33    12    37 1   
    34    13    38 1   
    35    13    39 1   
    36    13    40 1   
    37    14    15 1   
    38    14    41 1   
    39    14    42 1   
    40    15    43 1   
    41    15    44 1   
    42    15    45 1   
    43    16    19 1   
    44    16    20 1   
    45    16    47 1   
    46    46    47 1   
@<TRIPOS>SUBSTRUCTURE
     1 AFC         1 TEMP              0 ****  ****    0 ROOT
