@<TRIPOS>MOLECULE
AFD
   24    24     1     0     0
SMALL
No Charge or Current Charge


@<TRIPOS>ATOM
      1 C1         -28.3780    19.2150    20.8510 c6         1 AFD       0.419300
      2 C2         -27.3660    19.7280    21.9330 c6         1 AFD       0.080300
      3 C3         -27.0110    21.2220    21.6470 c6         1 AFD       0.082300
      4 C4         -28.2040    22.0160    21.0100 c6         1 AFD       0.151300
      5 C5         -29.5730    21.3330    21.3350 c6         1 AFD       0.198300
      6 C6         -30.8000    22.0950    20.7280 c3         1 AFD       0.166600
      7 O2         -27.9080    19.6230    23.2680 oh         1 AFD      -0.689000
      8 O3         -26.5760    21.8520    22.8830 oh         1 AFD      -0.705000
      9 O4         -28.1230    23.3610    21.5040 oh         1 AFD      -0.694000
     10 O5         -29.6180    19.9570    20.8450 os         1 AFD      -0.445000
     11 O6         -30.8550    22.0670    19.2830 oh         1 AFD      -0.720000
     12 O1         -28.7340    17.8830    21.1700 oh         1 AFD      -0.688000
     13 H1         -27.9170    19.2610    19.8530 h2         1 AFD       0.015700
     14 H2         -26.4420    19.1360    21.8600 h1         1 AFD       0.036700
     15 H3         -26.1880    21.2400    20.9160 h1         1 AFD       0.036700
     16 H4         -28.0790    22.0120    19.9160 h1         1 AFD       0.055700
     17 H5         -29.7050    21.3180    22.4260 h1         1 AFD       0.071700
     18 H61        -30.7770    23.1330    21.0870 h1         1 AFD       0.038200
     19 H62        -31.7090    21.6380    21.1430 h1         1 AFD       0.038200
     20 HO2        -27.5800    20.4490    23.7070 ho         1 AFD       0.515000
     21 HO3        -25.6010    21.6960    22.9670 ho         1 AFD       0.509000
     22 HO4        -27.4950    23.2480    22.2670 ho         1 AFD       0.509000
     23 HO6        -31.6890    22.5200    19.0180 ho         1 AFD       0.503000
     24 HO1        -28.8560    17.9370    22.1450 ho         1 AFD       0.511000
@<TRIPOS>BOND
     1     1     2 1   
     2     1    10 1   
     3     1    12 1   
     4     1    13 1   
     5     2     3 1   
     6     2     7 1   
     7     2    14 1   
     8     3     4 1   
     9     3     8 1   
    10     3    15 1   
    11     4     5 1   
    12     4     9 1   
    13     4    16 1   
    14     5     6 1   
    15     5    10 1   
    16     5    17 1   
    17     6    11 1   
    18     6    18 1   
    19     6    19 1   
    20     7    20 1   
    21     8    21 1   
    22     9    22 1   
    23    11    23 1   
    24    12    24 1   
@<TRIPOS>SUBSTRUCTURE
     1 AFD         1 TEMP              0 ****  ****    0 ROOT
