@<TRIPOS>MOLECULE
AFD
   24    24     1     0     0
SMALL
bcc


@<TRIPOS>ATOM
      1 C1         -28.4530    19.2620    21.0660 c6         1 AFD       0.372900
      2 C2         -27.4910    19.7580    22.1370 c6         1 AFD       0.057100
      3 C3         -27.0770    21.2160    21.8220 c6         1 AFD       0.059100
      4 C4         -28.2040    21.9560    21.0640 c6         1 AFD       0.128100
      5 C5         -29.5760    21.3760    21.4170 c6         1 AFD       0.175100
      6 C6         -30.7280    22.0840    20.7330 c3         1 AFD       0.143400
      7 O2         -28.1130    19.6670    23.3900 oh         1 AFD      -0.566800
      8 O3         -26.7790    21.9000    23.0180 oh         1 AFD      -0.582800
      9 O4         -28.2380    23.3290    21.3290 oh         1 AFD      -0.571800
     10 O5         -29.6370    20.0060    21.0470 os         1 AFD      -0.398600
     11 O6         -30.5230    22.1150    19.3410 oh         1 AFD      -0.597800
     12 O1         -28.8660    17.9500    21.2900 oh         1 AFD      -0.565800
     13 H1         -27.9370    19.3330    20.0930 h2         1 AFD       0.015700
     14 H2         -26.5910    19.1250    22.1030 h1         1 AFD       0.036700
     15 H3         -26.1970    21.1910    21.1700 h1         1 AFD       0.036700
     16 H4         -28.0340    21.7690    19.9950 h1         1 AFD       0.055700
     17 H5         -29.7420    21.4820    22.4970 h1         1 AFD       0.071700
     18 H61        -30.8130    23.0890    21.1610 h1         1 AFD       0.038200
     19 H62        -31.6550    21.5550    20.9950 h1         1 AFD       0.038200
     20 HO2        -27.7840    20.4130    23.9100 ho         1 AFD       0.416000
     21 HO3        -25.8710    21.6960    23.2690 ho         1 AFD       0.410000
     22 HO4        -27.3780    23.7080    21.1230 ho         1 AFD       0.410000
     23 HO6        -31.2450    22.6080    18.9430 ho         1 AFD       0.404000
     24 HO1        -28.2530    17.3540    20.8490 ho         1 AFD       0.412000
@<TRIPOS>BOND
     1     1     2 1   
     2     1    10 1   
     3     1    12 1   
     4     1    13 1   
     5     2     3 1   
     6     2     7 1   
     7     2    14 1   
     8     3     4 1   
     9     3     8 1   
    10     3    15 1   
    11     4     5 1   
    12     4     9 1   
    13     4    16 1   
    14     5     6 1   
    15     5    10 1   
    16     5    17 1   
    17     6    11 1   
    18     6    18 1   
    19     6    19 1   
    20     7    20 1   
    21     8    21 1   
    22     9    22 1   
    23    11    23 1   
    24    12    24 1   
@<TRIPOS>SUBSTRUCTURE
     1 AFD         1 TEMP              0 ****  ****    0 ROOT
