@<TRIPOS>MOLECULE
AFE
   51    54     1     0     0
SMALL
abcg2


@<TRIPOS>ATOM
      1 O9           4.3490     2.8550     0.9700 oh         1 AFE      -0.629000
      2 C23          3.3150     1.9970     0.5640 c6         1 AFE       0.186300
      3 C22          2.0250     2.7590     0.2660 c6         1 AFE       0.115300
      4 O22          2.3140     3.7480    -0.6890 oh         1 AFE      -0.695000
      5 C24          3.7590     1.2420    -0.6800 c6         1 AFE       0.150300
      6 O61          4.9040     0.4920    -0.3520 oh         1 AFE      -0.708000
      7 C25          2.6260     0.3120    -1.1350 c6         1 AFE       0.134300
      8 C51          2.9320    -0.3840    -2.4450 c3         1 AFE      -0.090100
      9 O7           1.4100     1.0310    -1.3310 os         1 AFE      -0.456000
     10 C21          0.9590     1.8100    -0.2830 c6         1 AFE       0.351300
     11 O8           0.5000     1.0220     0.8120 os         1 AFE      -0.359100
     12 C3          -0.7060     0.4350     0.6160 cc         1 AFE      -0.093100
     13 C4          -1.8940     1.2650     0.6580 c          1 AFE       0.600900
     14 O2          -1.8420     2.4780     0.9060 o          1 AFE      -0.600100
     15 C2          -0.8050    -0.9000     0.4090 cd         1 AFE       0.211900
     16 C11          0.3050    -1.8510     0.4140 ca         1 AFE      -0.117800
     17 C12          1.2530    -1.8450     1.4360 ca         1 AFE      -0.023500
     18 C13          2.3030    -2.7460     1.4330 ca         1 AFE      -0.189500
     19 C14          2.4270    -3.6690     0.3950 ca         1 AFE       0.167100
     20 O5           3.4270    -4.5600     0.3330 oh         1 AFE      -0.527100
     21 C15          1.4800    -3.6860    -0.6290 ca         1 AFE      -0.189500
     22 C16          0.4270    -2.7920    -0.6100 ca         1 AFE      -0.023500
     23 O1          -1.9900    -1.4920     0.1780 os         1 AFE      -0.205200
     24 C9          -3.1370    -0.7880     0.1170 ca         1 AFE       0.246100
     25 C8          -4.2910    -1.4880    -0.1820 ca         1 AFE      -0.300000
     26 C7          -5.4860    -0.7760    -0.2330 ca         1 AFE       0.247100
     27 O4          -6.6490    -1.3700    -0.5150 oh         1 AFE      -0.517100
     28 C6          -5.5290     0.6000     0.0120 ca         1 AFE      -0.246000
     29 C5          -4.3650     1.2790     0.3130 ca         1 AFE       0.282100
     30 C10         -3.1300     0.5850     0.3650 ca         1 AFE      -0.381600
     31 O3          -4.4120     2.5860     0.5460 oh         1 AFE      -0.534100
     32 HO9          4.1110     3.2340     1.8220 ho         1 AFE       0.442000
     33 H23          3.0930     1.2560     1.3480 h1         1 AFE       0.052700
     34 H22          1.6410     3.2030     1.1940 h1         1 AFE       0.058700
     35 HO22         1.5560     4.3370    -0.7610 ho         1 AFE       0.507000
     36 H24          3.9740     1.9620    -1.4820 h1         1 AFE       0.070700
     37 HO61         5.3480     0.2390    -1.1660 ho         1 AFE       0.505000
     38 H25          2.4900    -0.4490    -0.3580 h1         1 AFE       0.055700
     39 H512         3.8080    -1.0250    -2.3460 hc         1 AFE       0.045367
     40 H513         2.1020    -1.0250    -2.7400 hc         1 AFE       0.045367
     41 H511         3.1180     0.3350    -3.2450 hc         1 AFE       0.045367
     42 H21          0.1270     2.3920    -0.6920 h2         1 AFE       0.086700
     43 H12          1.1760    -1.1370     2.2500 ha         1 AFE       0.128500
     44 H13          3.0260    -2.7270     2.2400 ha         1 AFE       0.128500
     45 HO5          4.0180    -4.4650     1.0890 ho         1 AFE       0.472000
     46 H15          1.5740    -4.4000    -1.4370 ha         1 AFE       0.128500
     47 H16         -0.2930    -2.8190    -1.4180 ha         1 AFE       0.128500
     48 H8          -4.2570    -2.5550    -0.3650 ha         1 AFE       0.139000
     49 HO4         -6.5280    -2.3160    -0.6630 ho         1 AFE       0.476000
     50 H6          -6.4720     1.1290    -0.0310 ha         1 AFE       0.154000
     51 HO3         -3.4940     2.8880     0.7440 ho         1 AFE       0.522000
@<TRIPOS>BOND
     1     1     2 1   
     2     1    32 1   
     3     2     3 1   
     4     2     5 1   
     5     2    33 1   
     6     3     4 1   
     7     3    10 1   
     8     3    34 1   
     9     4    35 1   
    10     5     6 1   
    11     5     7 1   
    12     5    36 1   
    13     6    37 1   
    14     7     8 1   
    15     7     9 1   
    16     7    38 1   
    17     8    39 1   
    18     8    40 1   
    19     8    41 1   
    20     9    10 1   
    21    10    11 1   
    22    10    42 1   
    23    11    12 1   
    24    12    13 1   
    25    12    15 2   
    26    13    14 2   
    27    13    30 1   
    28    15    16 1   
    29    15    23 1   
    30    16    17 ar  
    31    16    22 ar  
    32    17    18 ar  
    33    17    43 1   
    34    18    19 ar  
    35    18    44 1   
    36    19    20 1   
    37    19    21 ar  
    38    20    45 1   
    39    21    22 ar  
    40    21    46 1   
    41    22    47 1   
    42    23    24 1   
    43    24    25 ar  
    44    24    30 ar  
    45    25    26 ar  
    46    25    48 1   
    47    26    27 1   
    48    26    28 ar  
    49    27    49 1   
    50    28    29 ar  
    51    28    50 1   
    52    29    30 ar  
    53    29    31 1   
    54    31    51 1   
@<TRIPOS>SUBSTRUCTURE
     1 AFE         1 TEMP              0 ****  ****    0 ROOT
