@<TRIPOS>MOLECULE
AFE
   51    54     1     0     0
SMALL
No Charge or Current Charge


@<TRIPOS>ATOM
      1 O9           4.9570     1.6390     0.4880 oh         1 AFE      -0.629000
      2 C23          3.5900     1.3630     0.1400 c6         1 AFE       0.186300
      3 C22          2.6490     2.3360     0.9130 c6         1 AFE       0.115300
      4 O22          3.0840     3.7040     0.6810 oh         1 AFE      -0.695000
      5 C24          3.3850     1.5060    -1.4030 c6         1 AFE       0.150300
      6 O61          4.2220     0.5640    -2.1070 oh         1 AFE      -0.708000
      7 C25          1.8760     1.3140    -1.7520 c6         1 AFE       0.134300
      8 C51          1.5570     1.5900    -3.2430 c3         1 AFE      -0.090100
      9 O7           1.0580     2.2290    -0.9830 os         1 AFE      -0.456000
     10 C21          1.1690     2.0800     0.4560 c6         1 AFE       0.351300
     11 O8           0.7540     0.7470     0.8280 os         1 AFE      -0.359100
     12 C3          -0.5340     0.2760     0.6200 cc         1 AFE      -0.093100
     13 C4          -1.7140     1.1390     0.3200 c          1 AFE       0.600900
     14 O2          -1.7220     2.3640     0.3920 o          1 AFE      -0.600100
     15 C2          -0.6030    -1.1120     0.5370 cd         1 AFE       0.211900
     16 C11          0.4250    -2.1360     0.8950 ca         1 AFE      -0.117800
     17 C12          1.5130    -1.8650     1.7630 ca         1 AFE      -0.023500
     18 C13          2.4570    -2.8610     2.0720 ca         1 AFE      -0.189500
     19 C14          2.3290    -4.1460     1.5310 ca         1 AFE       0.167100
     20 O5           3.2380    -5.1150     1.8280 oh         1 AFE      -0.527100
     21 C15          1.2520    -4.4400     0.6900 ca         1 AFE      -0.189500
     22 C16          0.3050    -3.4490     0.3780 ca         1 AFE      -0.023500
     23 O1          -1.8060    -1.6830     0.2090 os         1 AFE      -0.205200
     24 C9          -2.9420    -0.9820    -0.0960 ca         1 AFE       0.246100
     25 C8          -4.0900    -1.7030    -0.4460 ca         1 AFE      -0.300000
     26 C7          -5.2700    -1.0250    -0.7630 ca         1 AFE       0.247100
     27 O4          -6.3870    -1.7180    -1.1040 oh         1 AFE      -0.517100
     28 C6          -5.3030     0.3690    -0.7290 ca         1 AFE      -0.246000
     29 C5          -4.1570     1.0870    -0.3790 ca         1 AFE       0.282100
     30 C10         -2.9630     0.4160    -0.0580 ca         1 AFE      -0.381600
     31 O3          -4.2160     2.4410    -0.3530 oh         1 AFE      -0.534100
     32 HO9          4.9710     2.6100     0.6550 ho         1 AFE       0.442000
     33 H23          3.3360     0.3320     0.4270 h1         1 AFE       0.052700
     34 H22          2.7150     2.1000     1.9860 h1         1 AFE       0.058700
     35 HO22         2.4850     4.3010     1.1890 ho         1 AFE       0.507000
     36 H24          3.6630     2.5320    -1.6890 h1         1 AFE       0.070700
     37 HO61         5.0850     0.5730    -1.6280 ho         1 AFE       0.505000
     38 H25          1.5740     0.2810    -1.5230 h1         1 AFE       0.055700
     39 H512         2.0900     0.8900    -3.8980 hc         1 AFE       0.045367
     40 H513         0.4850     1.4760    -3.4420 hc         1 AFE       0.045367
     41 H511         1.8490     2.6070    -3.5310 hc         1 AFE       0.045367
     42 H21          0.5280     2.8180     0.9580 h2         1 AFE       0.086700
     43 H12          1.6260    -0.8990     2.2440 ha         1 AFE       0.128500
     44 H13          3.2790    -2.6250     2.7440 ha         1 AFE       0.128500
     45 HO5          3.9130    -4.7330     2.4290 ho         1 AFE       0.472000
     46 H15          1.1480    -5.4390     0.2730 ha         1 AFE       0.128500
     47 H16         -0.5130    -3.7110    -0.2900 ha         1 AFE       0.128500
     48 H8          -4.0510    -2.7880    -0.4680 ha         1 AFE       0.139000
     49 HO4         -6.1720    -2.6730    -1.0710 ho         1 AFE       0.476000
     50 H6          -6.2190     0.8970    -0.9750 ha         1 AFE       0.154000
     51 HO3         -3.3080     2.7310    -0.0750 ho         1 AFE       0.522000
@<TRIPOS>BOND
     1     1     2 1   
     2     1    32 1   
     3     2     3 1   
     4     2     5 1   
     5     2    33 1   
     6     3     4 1   
     7     3    10 1   
     8     3    34 1   
     9     4    35 1   
    10     5     6 1   
    11     5     7 1   
    12     5    36 1   
    13     6    37 1   
    14     7     8 1   
    15     7     9 1   
    16     7    38 1   
    17     8    39 1   
    18     8    40 1   
    19     8    41 1   
    20     9    10 1   
    21    10    11 1   
    22    10    42 1   
    23    11    12 1   
    24    12    13 1   
    25    12    15 2   
    26    13    14 2   
    27    13    30 1   
    28    15    16 1   
    29    15    23 1   
    30    16    17 ar  
    31    16    22 ar  
    32    17    18 ar  
    33    17    43 1   
    34    18    19 ar  
    35    18    44 1   
    36    19    20 1   
    37    19    21 ar  
    38    20    45 1   
    39    21    22 ar  
    40    21    46 1   
    41    22    47 1   
    42    23    24 1   
    43    24    25 ar  
    44    24    30 ar  
    45    25    26 ar  
    46    25    48 1   
    47    26    27 1   
    48    26    28 ar  
    49    27    49 1   
    50    28    29 ar  
    51    28    50 1   
    52    29    30 ar  
    53    29    31 1   
    54    31    51 1   
@<TRIPOS>SUBSTRUCTURE
     1 AFE         1 TEMP              0 ****  ****    0 ROOT
