@<TRIPOS>MOLECULE
AFH
   64    67     1     0     0
SMALL
No Charge or Current Charge


@<TRIPOS>ATOM
      1 N9          47.4950    12.5640     4.9690 na         1 AFH      -0.265300
      2 C8          48.5830    12.8050     4.1210 cc         1 AFH       0.450700
      3 N7          49.7140    12.2430     4.5910 nd         1 AFH      -0.580100
      4 C5          49.3020    11.6490     5.7880 ca         1 AFH      -0.088600
      5 C6          50.0570    10.9180     6.7300 ca         1 AFH       0.440900
      6 N6          51.3860    10.6730     6.5770 nv         1 AFH      -1.079900
      7 N1          49.4910    10.4140     7.8370 nb         1 AFH      -0.322000
      8 C2          48.1670    10.6600     7.9900 ca         1 AFH       0.160900
      9 N3          47.3680    11.3510     7.1440 nb         1 AFH      -0.209000
     10 C4          47.9630    11.8370     6.0350 ca         1 AFH       0.128500
     11 C1D         46.1330    13.0680     4.7480 c5         1 AFH       0.267300
     12 C2D         45.6890    13.2400     3.2430 c5         1 AFH       0.085300
     13 O2          45.7130    14.5970     2.7780 oh         1 AFH      -0.701000
     14 C3D         44.2270    12.7060     3.2740 c5         1 AFH       0.111300
     15 C4D         44.4000    11.5240     4.2810 c5         1 AFH       0.099300
     16 O4D         45.1450    12.1800     5.3370 os         1 AFH      -0.445000
     17 O3D         43.3250    13.7180     3.7730 oh         1 AFH      -0.729000
     18 C5D         45.1900    10.2740     3.7610 c3         1 AFH       0.207600
     19 O5D         44.9060    10.0190     2.3740 os         1 AFH      -0.596400
     20 PA          43.5490     9.2650     1.9340 p5         1 AFH       1.470800
     21 O1A         43.3830     9.3820     0.4560 o          1 AFH      -0.839500
     22 O2A         42.3890     9.8230     2.6830 o          1 AFH      -0.839500
     23 O3A         44.0170     7.8170     2.3440 os         1 AFH      -0.715800
     24 PB          42.9070     6.8480     2.9030 p5         1 AFH       1.480800
     25 O1B         43.5050     5.4810     2.9330 o          1 AFH      -0.853000
     26 O2B         42.4200     7.2400     4.2590 o          1 AFH      -0.853000
     27 O3B         41.7860     6.9580     1.7560 os         1 AFH      -0.542400
     28 C1          41.1860     5.7680     1.2480 c6         1 AFH       0.452300
     29 C11         40.0850     5.1750     2.1960 c6         1 AFH       0.116300
     30 C3          39.3650     3.9820     1.5050 c6         1 AFH       0.138300
     31 C12         38.8260     4.4080     0.1090 c6         1 AFH       0.131300
     32 C9          39.9940     5.0100    -0.7360 c6         1 AFH       0.134300
     33 C10         39.5400     5.5160    -2.1560 c3         1 AFH       0.180300
     34 C7          40.7320     5.9660    -3.0530 c3         1 AFH       0.167600
     35 F           40.6500     4.6900     3.3980 f          1 AFH      -0.250000
     36 O3          38.2880     3.4710     2.3170 oh         1 AFH      -0.669000
     37 O4          38.2150     3.2760    -0.5370 oh         1 AFH      -0.720000
     38 O5          40.5750     6.1240    -0.0100 os         1 AFH      -0.444000
     39 O6          38.5840     6.5970    -2.0790 oh         1 AFH      -0.705000
     40 O7          41.6620     4.8890    -3.2760 oh         1 AFH      -0.671000
     41 H8          48.4920    13.3810     3.2070 h5         1 AFH       0.088800
     42 HN61        51.7780    10.8510     5.6560 hn         1 AFH       0.498500
     43 HN62        51.7990     9.9120     7.1100 hn         1 AFH       0.498500
     44 H2          47.6970    10.2590     8.8860 h5         1 AFH       0.030100
     45 H1D         46.0920    14.0330     5.2670 h2         1 AFH       0.075700
     46 H2D         46.2990    12.6010     2.5890 h1         1 AFH       0.094700
     47 HO2         44.7870    14.9150     2.9310 ho         1 AFH       0.509000
     48 H3D         43.9080    12.3540     2.2810 h1         1 AFH       0.128700
     49 H4D         43.4320    11.1790     4.6700 h1         1 AFH       0.123700
     50 HO3A        43.3260    13.6320     4.7560 ho         1 AFH       0.502000
     51 H5'1        44.9260     9.4080     4.3820 h1         1 AFH       0.049700
     52 H5'2        46.2680    10.4350     3.8840 h1         1 AFH       0.049700
     53 H1          41.9600     5.0110     1.0520 h2         1 AFH       0.026700
     54 H9          39.3630     5.9610     2.4550 h1         1 AFH       0.085700
     55 H3          40.1130     3.1890     1.3500 h1         1 AFH       0.045700
     56 H4          38.0730     5.1950     0.2650 h1         1 AFH       0.054700
     57 H5          40.7650     4.2380    -0.8770 h1         1 AFH       0.062700
     58 H6          39.0680     4.6670    -2.6680 h1         1 AFH       0.017700
     59 H7'1        41.2410     6.8130    -2.5720 h1         1 AFH       0.041700
     60 H7'2        40.3350     6.3230    -4.0130 h1         1 AFH       0.041700
     61 HO3         38.6690     3.2840     3.2050 ho         1 AFH       0.447000
     62 HO4         37.7380     2.8030     0.1870 ho         1 AFH       0.484000
     63 HO6         37.7340     6.2030    -1.7800 ho         1 AFH       0.479000
     64 HO7         42.3800     5.2440    -3.8470 ho         1 AFH       0.460000
@<TRIPOS>BOND
     1     1     2 1   
     2     1    10 1   
     3     1    11 1   
     4     2     3 2   
     5     2    41 1   
     6     3     4 1   
     7     4     5 ar  
     8     4    10 ar  
     9     5     6 1   
    10     5     7 ar  
    11     6    42 1   
    12     6    43 1   
    13     7     8 ar  
    14     8     9 ar  
    15     8    44 1   
    16     9    10 ar  
    17    11    12 1   
    18    11    16 1   
    19    11    45 1   
    20    12    13 1   
    21    12    14 1   
    22    12    46 1   
    23    13    47 1   
    24    14    15 1   
    25    14    17 1   
    26    14    48 1   
    27    15    16 1   
    28    15    18 1   
    29    15    49 1   
    30    17    50 1   
    31    18    19 1   
    32    18    51 1   
    33    18    52 1   
    34    19    20 1   
    35    20    21 1   
    36    20    22 1   
    37    20    23 1   
    38    23    24 1   
    39    24    25 1   
    40    24    26 1   
    41    24    27 1   
    42    27    28 1   
    43    28    29 1   
    44    28    38 1   
    45    28    53 1   
    46    29    30 1   
    47    29    35 1   
    48    29    54 1   
    49    30    31 1   
    50    30    36 1   
    51    30    55 1   
    52    31    32 1   
    53    31    37 1   
    54    31    56 1   
    55    32    33 1   
    56    32    38 1   
    57    32    57 1   
    58    33    34 1   
    59    33    39 1   
    60    33    58 1   
    61    34    40 1   
    62    34    59 1   
    63    34    60 1   
    64    36    61 1   
    65    37    62 1   
    66    39    63 1   
    67    40    64 1   
@<TRIPOS>SUBSTRUCTURE
     1 AFH         1 TEMP              0 ****  ****    0 ROOT
