@<TRIPOS>MOLECULE
AFH
   64    67     1     0     0
SMALL
abcg2


@<TRIPOS>ATOM
      1 N9          47.3430    11.4230     5.3040 na         1 AFH      -0.265300
      2 C8          47.9890    10.7510     4.3000 cc         1 AFH       0.450700
      3 N7          49.0830    10.1680     4.6890 nd         1 AFH      -0.580100
      4 C5          49.1700    10.4640     6.0260 ca         1 AFH      -0.088600
      5 C6          50.1080    10.1320     7.0210 ca         1 AFH       0.440900
      6 N6          51.1920     9.3940     6.7750 nv         1 AFH      -1.079900
      7 N1          49.8920    10.5830     8.2620 nb         1 AFH      -0.322000
      8 C2          48.8100    11.3180     8.5040 ca         1 AFH       0.160900
      9 N3          47.8660    11.6960     7.6590 nb         1 AFH      -0.209000
     10 C4          48.0950    11.2390     6.4300 ca         1 AFH       0.128500
     11 C1D         46.0960    12.1350     5.2130 c5         1 AFH       0.267300
     12 C2D         46.1070    13.3080     4.2220 c5         1 AFH       0.085300
     13 O2          46.7020    14.4640     4.7090 oh         1 AFH      -0.701000
     14 C3D         44.6170    13.4130     3.8770 c5         1 AFH       0.111300
     15 C4D         44.2060    11.9430     3.8580 c5         1 AFH       0.099300
     16 O4D         45.0990    11.2660     4.7550 os         1 AFH      -0.445000
     17 O3D         43.9280    14.2050     4.8170 oh         1 AFH      -0.729000
     18 C5D         44.3280    11.3050     2.4800 c3         1 AFH       0.207600
     19 O5D         43.3440    11.8270     1.6120 os         1 AFH      -0.596400
     20 PA          41.9540    10.9820     1.3590 p5         1 AFH       1.470800
     21 O1A         41.1050    11.8580     0.5020 o          1 AFH      -0.839500
     22 O2A         41.4690    10.4020     2.6490 o          1 AFH      -0.839500
     23 O3A         42.5380     9.7910     0.3700 os         1 AFH      -0.715800
     24 PB          42.8480     8.2050     0.5670 p5         1 AFH       1.480800
     25 O1B         43.3200     7.6900    -0.7550 o          1 AFH      -0.853000
     26 O2B         43.6280     7.9210     1.8120 o          1 AFH      -0.853000
     27 O3B         41.2670     7.7260     0.8160 os         1 AFH      -0.542400
     28 C1          40.9910     6.3770     0.8700 c6         1 AFH       0.452300
     29 C11         39.9020     6.1090     1.8990 c6         1 AFH       0.116300
     30 C3          39.4680     4.6500     1.8840 c6         1 AFH       0.138300
     31 C12         39.1080     4.2250     0.4640 c6         1 AFH       0.131300
     32 C9          40.2660     4.5980    -0.4710 c6         1 AFH       0.134300
     33 C10         40.0130     4.2550    -1.9370 c3         1 AFH       0.180300
     34 C7          41.1580     4.7020    -2.8400 c3         1 AFH       0.167600
     35 F           40.3930     6.4150     3.1670 f          1 AFH      -0.250000
     36 O3          38.3510     4.4350     2.7070 oh         1 AFH      -0.669000
     37 O4          38.8810     2.8370     0.4710 oh         1 AFH      -0.720000
     38 O5          40.5050     5.9850    -0.3820 os         1 AFH      -0.444000
     39 O6          38.8480     4.8770    -2.4350 oh         1 AFH      -0.705000
     40 O7          42.3580     4.1310    -2.3730 oh         1 AFH      -0.671000
     41 H8          47.5970    10.7230     3.2940 h5         1 AFH       0.088800
     42 HN61        51.3800     9.0370     5.8550 hn         1 AFH       0.498500
     43 HN62        51.8340     9.1720     7.5160 hn         1 AFH       0.498500
     44 H2          48.6920    11.6490     9.5300 h5         1 AFH       0.030100
     45 H1D         45.8840    12.4960     6.2270 h2         1 AFH       0.075700
     46 H2D         46.6580    13.0130     3.3240 h1         1 AFH       0.094700
     47 HO2         46.0790    14.8900     5.3110 ho         1 AFH       0.509000
     48 H3D         44.4590    13.8840     2.9050 h1         1 AFH       0.128700
     49 H4D         43.1810    11.8100     4.2160 h1         1 AFH       0.123700
     50 HO3A        43.7320    13.6960     5.6120 ho         1 AFH       0.502000
     51 H5'1        44.2660    10.2180     2.5810 h1         1 AFH       0.049700
     52 H5'2        45.3090    11.5290     2.0470 h1         1 AFH       0.049700
     53 H1          41.8830     5.7790     1.1340 h2         1 AFH       0.026700
     54 H9          39.0440     6.7630     1.7060 h1         1 AFH       0.085700
     55 H3          40.3250     4.0390     2.2090 h1         1 AFH       0.045700
     56 H4          38.2090     4.7790     0.1570 h1         1 AFH       0.054700
     57 H5          41.1550     4.0360    -0.1460 h1         1 AFH       0.062700
     58 H6          39.9360     3.1620    -2.0050 h1         1 AFH       0.017700
     59 H7'1        41.2050     5.7960    -2.8530 h1         1 AFH       0.041700
     60 H7'2        40.9280     4.3770    -3.8630 h1         1 AFH       0.041700
     61 HO3         38.6280     4.4880     3.6270 ho         1 AFH       0.447000
     62 HO4         38.2410     2.6180    -0.2120 ho         1 AFH       0.484000
     63 HO6         38.0940     4.3020    -2.2850 ho         1 AFH       0.479000
     64 HO7         43.0910     4.5590    -2.8240 ho         1 AFH       0.460000
@<TRIPOS>BOND
     1     1     2 1   
     2     1    10 1   
     3     1    11 1   
     4     2     3 2   
     5     2    41 1   
     6     3     4 1   
     7     4     5 ar  
     8     4    10 ar  
     9     5     6 1   
    10     5     7 ar  
    11     6    42 1   
    12     6    43 1   
    13     7     8 ar  
    14     8     9 ar  
    15     8    44 1   
    16     9    10 ar  
    17    11    12 1   
    18    11    16 1   
    19    11    45 1   
    20    12    13 1   
    21    12    14 1   
    22    12    46 1   
    23    13    47 1   
    24    14    15 1   
    25    14    17 1   
    26    14    48 1   
    27    15    16 1   
    28    15    18 1   
    29    15    49 1   
    30    17    50 1   
    31    18    19 1   
    32    18    51 1   
    33    18    52 1   
    34    19    20 1   
    35    20    21 1   
    36    20    22 1   
    37    20    23 1   
    38    23    24 1   
    39    24    25 1   
    40    24    26 1   
    41    24    27 1   
    42    27    28 1   
    43    28    29 1   
    44    28    38 1   
    45    28    53 1   
    46    29    30 1   
    47    29    35 1   
    48    29    54 1   
    49    30    31 1   
    50    30    36 1   
    51    30    55 1   
    52    31    32 1   
    53    31    37 1   
    54    31    56 1   
    55    32    33 1   
    56    32    38 1   
    57    32    57 1   
    58    33    34 1   
    59    33    39 1   
    60    33    58 1   
    61    34    40 1   
    62    34    59 1   
    63    34    60 1   
    64    36    61 1   
    65    37    62 1   
    66    39    63 1   
    67    40    64 1   
@<TRIPOS>SUBSTRUCTURE
     1 AFH         1 TEMP              0 ****  ****    0 ROOT
