@<TRIPOS>MOLECULE
AFI
   45    48     1     0     0
SMALL
No Charge or Current Charge


@<TRIPOS>ATOM
      1 O1          -1.4830     0.3390     1.2570 o          1 AFI      -0.527100
      2 O2           2.0450     0.0260     5.4480 oh         1 AFI      -0.560100
      3 C1          -0.6960     0.2700     2.1960 c          1 AFI       0.600900
      4 C2           0.7360    -0.0490     2.0050 cc         1 AFI      -0.186200
      5 C3           1.6300    -0.1220     3.1250 cc         1 AFI       0.163100
      6 C4           1.1730     0.1030     4.4070 cd         1 AFI      -0.039100
      7 C5          -0.7070     0.6590     6.0050 ca         1 AFI      -0.123000
      8 C6          -2.0560     0.9650     6.2460 ca         1 AFI      -0.079000
      9 C7          -2.9580     1.0450     5.1770 ca         1 AFI      -0.130000
     10 C8          -2.5110     0.8190     3.8670 ca         1 AFI      -0.048000
     11 C9          -1.1550     0.5100     3.6130 ca         1 AFI      -0.176600
     12 C10         -0.2410     0.4280     4.6880 ca         1 AFI       0.000200
     13 O6           2.9260    -0.4150     2.9120 oh         1 AFI      -0.526100
     14 C11          1.7030     0.8490    -0.1510 c6         1 AFI      -0.066200
     15 C12          0.9640     0.8570    -1.5120 c6         1 AFI      -0.068400
     16 C13          1.0210    -0.5360    -2.2010 c6         1 AFI      -0.019400
     17 C14          0.4440    -1.6300    -1.2600 c6         1 AFI      -0.068400
     18 C15          1.1790    -1.6530     0.1030 c6         1 AFI      -0.066200
     19 C16          1.1930    -0.2730     0.7430 c2         1 AFI       0.029600
     20 Cl          -1.7610    -0.5070    -7.6480 cl         1 AFI      -0.206000
     21 C17          0.3150    -0.5260    -3.5650 ca         1 AFI      -0.072300
     22 C18          1.0470    -0.7990    -4.7390 ca         1 AFI      -0.098500
     23 C19          0.4090    -0.7930    -5.9920 ca         1 AFI      -0.102500
     24 C20         -0.9640    -0.5140    -6.0800 ca         1 AFI       0.119000
     25 C21         -1.7010    -0.2420    -4.9170 ca         1 AFI      -0.102500
     26 C22         -1.0650    -0.2480    -3.6640 ca         1 AFI      -0.098500
     27 H2           1.5490     0.2140     6.2730 ho         1 AFI       0.457000
     28 H5          -0.0400     0.6060     6.8600 ha         1 AFI       0.121000
     29 HA          -2.4020     1.1410     7.2630 ha         1 AFI       0.114000
     30 H7          -4.0030     1.2830     5.3620 ha         1 AFI       0.119000
     31 H8          -3.2250     0.8850     3.0480 ha         1 AFI       0.131000
     32 H6           3.3170    -0.4050     3.8150 ho         1 AFI       0.482000
     33 H111         1.5790     1.8200     0.3480 hc         1 AFI       0.070200
     34 H112         2.7810     0.7180    -0.3140 hc         1 AFI       0.070200
     35 H121        -0.0810     1.1560    -1.3520 hc         1 AFI       0.049450
     36 H122         1.4070     1.6180    -2.1690 hc         1 AFI       0.049450
     37 H13          2.0820    -0.7740    -2.3660 hc         1 AFI       0.052700
     38 H141        -0.6270    -1.4520    -1.0870 hc         1 AFI       0.049450
     39 H142         0.5220    -2.6150    -1.7400 hc         1 AFI       0.049450
     40 H151         2.2140    -1.9960    -0.0380 hc         1 AFI       0.070200
     41 H152         0.7010    -2.3800     0.7740 hc         1 AFI       0.070200
     42 H18          2.1120    -1.0160    -4.6850 ha         1 AFI       0.117000
     43 H19          0.9780    -1.0040    -6.8940 ha         1 AFI       0.129000
     44 H21         -2.7640    -0.0260    -4.9880 ha         1 AFI       0.129000
     45 H22         -1.6480    -0.0350    -2.7710 ha         1 AFI       0.117000
@<TRIPOS>BOND
     1     1     3 2   
     2     2     6 1   
     3     2    27 1   
     4     3     4 1   
     5     3    11 1   
     6     4     5 1   
     7     4    19 2   
     8     5     6 2   
     9     5    13 1   
    10     6    12 1   
    11     7     8 ar  
    12     7    12 ar  
    13     7    28 1   
    14     8     9 ar  
    15     8    29 1   
    16     9    10 ar  
    17     9    30 1   
    18    10    11 ar  
    19    10    31 1   
    20    11    12 ar  
    21    13    32 1   
    22    14    15 1   
    23    14    19 1   
    24    14    33 1   
    25    14    34 1   
    26    15    16 1   
    27    15    35 1   
    28    15    36 1   
    29    16    17 1   
    30    16    21 1   
    31    16    37 1   
    32    17    18 1   
    33    17    38 1   
    34    17    39 1   
    35    18    19 1   
    36    18    40 1   
    37    18    41 1   
    38    20    24 1   
    39    21    22 ar  
    40    21    26 ar  
    41    22    23 ar  
    42    22    42 1   
    43    23    24 ar  
    44    23    43 1   
    45    24    25 ar  
    46    25    26 ar  
    47    25    44 1   
    48    26    45 1   
@<TRIPOS>SUBSTRUCTURE
     1 AFI         1 TEMP              0 ****  ****    0 ROOT
