@<TRIPOS>MOLECULE
AFI
   45    48     1     0     0
SMALL
abcg2


@<TRIPOS>ATOM
      1 O1          -0.6230    -2.4690     2.7400 o          1 AFI      -0.527100
      2 O2           1.6500     2.0170     4.5580 oh         1 AFI      -0.560100
      3 C1          -0.2670    -1.3130     2.8720 c          1 AFI       0.600900
      4 C2           0.9090    -0.7150     2.1770 cc         1 AFI      -0.186200
      5 C3           1.6110     0.3060     2.9670 cc         1 AFI       0.163100
      6 C4           0.9630     1.0290     3.9040 cd         1 AFI      -0.039100
      7 C5          -1.1550     1.6190     5.0680 ca         1 AFI      -0.123000
      8 C6          -2.4670     1.3150     5.3920 ca         1 AFI      -0.079000
      9 C7          -3.0720     0.1640     4.8970 ca         1 AFI      -0.130000
     10 C8          -2.3500    -0.6880     4.0790 ca         1 AFI      -0.048000
     11 C9          -1.0370    -0.3850     3.7310 ca         1 AFI      -0.176600
     12 C10         -0.4240     0.7770     4.2270 ca         1 AFI       0.000200
     13 O6           2.9260     0.4620     2.7420 oh         1 AFI      -0.526100
     14 C11          2.2110    -0.2700     0.0530 c6         1 AFI      -0.066200
     15 C12          1.5840     0.2640    -1.2370 c6         1 AFI      -0.068400
     16 C13          0.9430    -0.8430    -2.0700 c6         1 AFI      -0.019400
     17 C14         -0.0760    -1.5870    -1.2110 c6         1 AFI      -0.068400
     18 C15          0.5370    -2.1090     0.0890 c6         1 AFI      -0.066200
     19 C16          1.2090    -1.0250     0.8860 c2         1 AFI       0.029600
     20 CL          -1.4690     1.2370    -7.1910 cl         1 AFI      -0.206000
     21 C17          0.3380    -0.3190    -3.3460 ca         1 AFI      -0.072300
     22 C18          0.8140    -0.7400    -4.5840 ca         1 AFI      -0.098500
     23 C19          0.2680    -0.2700    -5.7710 ca         1 AFI      -0.102500
     24 C20         -0.7740     0.6390    -5.7170 ca         1 AFI       0.119000
     25 C21         -1.2720     1.0800    -4.5000 ca         1 AFI      -0.102500
     26 C22         -0.7120     0.5990    -3.3270 ca         1 AFI      -0.098500
     27 H2           1.6560     1.8410     5.5080 ho         1 AFI       0.457000
     28 H5          -0.7030     2.5170     5.4680 ha         1 AFI       0.121000
     29 HA          -3.0240     1.9820     6.0370 ha         1 AFI       0.114000
     30 H7          -4.0990    -0.0650     5.1510 ha         1 AFI       0.119000
     31 H8          -2.8100    -1.5900     3.6960 ha         1 AFI       0.131000
     32 H6           3.2600     1.1670     3.3150 ho         1 AFI       0.482000
     33 H111         2.6650     0.5560     0.5860 hc         1 AFI       0.070200
     34 H112         3.0200    -0.9630    -0.2090 hc         1 AFI       0.070200
     35 H121         0.8330     1.0200    -0.9890 hc         1 AFI       0.049450
     36 H122         2.3600     0.7710    -1.8150 hc         1 AFI       0.049450
     37 H13          1.7330    -1.5530    -2.3410 hc         1 AFI       0.052700
     38 H141        -0.9120    -0.9240    -0.9700 hc         1 AFI       0.049450
     39 H142        -0.4940    -2.4300    -1.7640 hc         1 AFI       0.049450
     40 H151         1.3160    -2.8420    -0.1540 hc         1 AFI       0.070200
     41 H152        -0.2120    -2.6470     0.6560 hc         1 AFI       0.070200
     42 H18          1.6290    -1.4520    -4.6300 ha         1 AFI       0.117000
     43 H19          0.6540    -0.6100    -6.7220 ha         1 AFI       0.129000
     44 H21         -2.0860     1.7910    -4.4650 ha         1 AFI       0.129000
     45 H22         -1.1110     0.9550    -2.3840 ha         1 AFI       0.117000
@<TRIPOS>BOND
     1     1     3 2   
     2     2     6 1   
     3     2    27 1   
     4     3     4 1   
     5     3    11 1   
     6     4     5 1   
     7     4    19 2   
     8     5     6 2   
     9     5    13 1   
    10     6    12 1   
    11     7     8 ar  
    12     7    12 ar  
    13     7    28 1   
    14     8     9 ar  
    15     8    29 1   
    16     9    10 ar  
    17     9    30 1   
    18    10    11 ar  
    19    10    31 1   
    20    11    12 ar  
    21    13    32 1   
    22    14    15 1   
    23    14    19 1   
    24    14    33 1   
    25    14    34 1   
    26    15    16 1   
    27    15    35 1   
    28    15    36 1   
    29    16    17 1   
    30    16    21 1   
    31    16    37 1   
    32    17    18 1   
    33    17    38 1   
    34    17    39 1   
    35    18    19 1   
    36    18    40 1   
    37    18    41 1   
    38    20    24 1   
    39    21    22 ar  
    40    21    26 ar  
    41    22    23 ar  
    42    22    42 1   
    43    23    24 ar  
    44    23    43 1   
    45    24    25 ar  
    46    25    26 ar  
    47    25    44 1   
    48    26    45 1   
@<TRIPOS>SUBSTRUCTURE
     1 AFI         1 TEMP              0 ****  ****    0 ROOT
