@<TRIPOS>MOLECULE
AFJ
   82    81     1     0     0
SMALL
abcg2


@<TRIPOS>ATOM
      1 S1           2.0990     4.8480     0.4420 ss         1 AFJ      -0.435000
      2 C2           2.5590     3.1190     0.7460 c3         1 AFJ       0.059600
      3 C5           1.6940     2.2110    -0.1160 c3         1 AFJ      -0.078400
      4 C8           2.0530     0.7340     0.0550 c3         1 AFJ       0.036700
      5 N10          3.3720     0.4790    -0.4580 ns         1 AFJ      -0.494900
      6 C12          3.9700    -0.7170    -0.3030 c          1 AFJ       0.601100
      7 O13          3.4410    -1.6240     0.3260 o          1 AFJ      -0.608100
      8 C14          5.3360    -0.8540    -0.9350 c3         1 AFJ      -0.152400
      9 C17          6.3770    -1.3360     0.0720 c3         1 AFJ      -0.066400
     10 C20          7.7570    -1.5940    -0.5330 c3         1 AFJ      -0.061700
     11 C22          8.3690    -0.3350    -1.1410 c3         1 AFJ      -0.088100
     12 C26          8.6860    -2.1810     0.5250 c3         1 AFJ      -0.088100
     13 C30          1.0110    -0.1120    -0.6810 c          1 AFJ       0.590100
     14 O31          1.0780    -0.2910    -1.8850 o          1 AFJ      -0.595100
     15 N32          0.0120    -0.5480     0.1030 ns         1 AFJ      -0.500900
     16 C34         -1.1130    -1.3450    -0.3460 c3         1 AFJ       0.081700
     17 C36         -2.4110    -0.5210    -0.2840 c3         1 AFJ       0.150300
     18 O38         -2.6340    -0.0060     1.0130 oh         1 AFJ      -0.666000
     19 C40         -2.4360     0.5710    -1.3490 c3         1 AFJ      -0.105400
     20 C43         -3.6700     1.4810    -1.3090 c3         1 AFJ      -0.134700
     21 C45         -3.5950     2.5380    -2.4060 c3         1 AFJ      -0.080100
     22 C49         -4.9330     0.6480    -1.4610 c          1 AFJ       0.600100
     23 O50         -5.2790     0.2010    -2.5490 o          1 AFJ      -0.610100
     24 N51         -5.6160     0.4370    -0.3240 ns         1 AFJ      -0.502900
     25 C53         -6.8140    -0.3620    -0.2080 c3         1 AFJ       0.098000
     26 C56         -7.9100     0.3680     0.5560 c3         1 AFJ      -0.095400
     27 C59         -9.1550    -0.4890     0.7370 c3         1 AFJ      -0.073400
     28 C62        -10.2510     0.2310     1.5100 c3         1 AFJ      -0.088100
     29 C66         -1.2210    -2.6300     0.4720 c3         1 AFJ      -0.086400
     30 C69          0.0250    -3.5180     0.4710 c3         1 AFJ      -0.061700
     31 C71         -0.2250    -4.7480     1.3400 c3         1 AFJ      -0.088100
     32 C75          0.4470    -3.9320    -0.9350 c3         1 AFJ      -0.088100
     33 C79          3.2430     5.6730     1.5700 c3         1 AFJ       0.042900
     34 H2           3.6190     2.9910     0.5170 h1         1 AFJ       0.060700
     35 H2A          2.4120     2.8860     1.8020 h1         1 AFJ       0.060700
     36 H5           0.6460     2.3460     0.1600 hc         1 AFJ       0.068700
     37 H5A          1.7830     2.4860    -1.1710 hc         1 AFJ       0.068700
     38 H8           2.0340     0.4900     1.1220 h1         1 AFJ       0.069700
     39 HN10         3.7960     1.1610    -1.0650 hn         1 AFJ       0.323500
     40 H14          5.2540    -1.5790    -1.7520 hc         1 AFJ       0.061200
     41 H14A         5.6450     0.0910    -1.3850 hc         1 AFJ       0.061200
     42 H17          6.4730    -0.5980     0.8760 hc         1 AFJ       0.051200
     43 H17A         6.0180    -2.2570     0.5380 hc         1 AFJ       0.051200
     44 H20          7.6400    -2.3360    -1.3320 hc         1 AFJ       0.047700
     45 H22          9.3750    -0.5320    -1.5160 hc         1 AFJ       0.033033
     46 H22A         7.7840     0.0470    -1.9780 hc         1 AFJ       0.033033
     47 H22B         8.4450     0.4610    -0.3960 hc         1 AFJ       0.033033
     48 H26          8.2870    -3.1120     0.9330 hc         1 AFJ       0.033033
     49 H26A         9.6730    -2.3950     0.1120 hc         1 AFJ       0.033033
     50 H26B         8.8180    -1.4850     1.3570 hc         1 AFJ       0.033033
     51 HN32         0.1260    -0.4410     1.1000 hn         1 AFJ       0.312500
     52 H34         -0.9350    -1.5980    -1.3930 h1         1 AFJ       0.090700
     53 H36         -3.2360    -1.2180    -0.4690 h1         1 AFJ       0.083700
     54 HO38        -2.0420     0.7410     1.1500 ho         1 AFJ       0.438000
     55 H40         -1.5500     1.2080    -1.2520 hc         1 AFJ       0.063200
     56 H40A        -2.3670     0.0990    -2.3330 hc         1 AFJ       0.063200
     57 H43         -3.6920     1.9970    -0.3460 hc         1 AFJ       0.049700
     58 H45         -4.4560     3.2050    -2.3750 hc         1 AFJ       0.044367
     59 H45A        -2.6990     3.1470    -2.2810 hc         1 AFJ       0.044367
     60 H45B        -3.5550     2.0820    -3.3950 hc         1 AFJ       0.044367
     61 HN51        -5.2120     0.7810     0.5330 hn         1 AFJ       0.316500
     62 H53         -7.1570    -0.6130    -1.2110 h1         1 AFJ       0.053700
     63 H53A        -6.5810    -1.3070     0.2940 h1         1 AFJ       0.053700
     64 H56         -7.5310     0.6700     1.5390 hc         1 AFJ       0.042700
     65 H56A        -8.1670     1.2900     0.0260 hc         1 AFJ       0.042700
     66 H59         -9.5350    -0.7910    -0.2430 hc         1 AFJ       0.039700
     67 H59A        -8.8860    -1.4140     1.2560 hc         1 AFJ       0.039700
     68 H62         -9.9100     0.5070     2.5100 hc         1 AFJ       0.032700
     69 H62A       -10.5520     1.1480     1.0010 hc         1 AFJ       0.032700
     70 H62B       -11.1380    -0.3930     1.6230 hc         1 AFJ       0.032700
     71 H66         -1.4790    -2.3770     1.5050 hc         1 AFJ       0.049200
     72 H66A        -2.0680    -3.2010     0.0770 hc         1 AFJ       0.049200
     73 H69          0.8530    -2.9540     0.9140 hc         1 AFJ       0.059700
     74 H71         -1.0370    -5.3560     0.9330 hc         1 AFJ       0.033867
     75 H71A         0.6640    -5.3790     1.3940 hc         1 AFJ       0.033867
     76 H71B        -0.4980    -4.4710     2.3600 hc         1 AFJ       0.033867
     77 H75          0.7720    -3.0810    -1.5340 hc         1 AFJ       0.033867
     78 H75A         1.2820    -4.6330    -0.8970 hc         1 AFJ       0.033867
     79 H75B        -0.3720    -4.4240    -1.4650 hc         1 AFJ       0.033867
     80 H79          3.0910     6.7460     1.4650 h1         1 AFJ       0.061700
     81 H79A         3.0500     5.3930     2.6040 h1         1 AFJ       0.061700
     82 H79B         4.2780     5.4420     1.3190 h1         1 AFJ       0.061700
@<TRIPOS>BOND
     1     1     2 1   
     2     1    33 1   
     3     2     3 1   
     4     2    34 1   
     5     2    35 1   
     6     3     4 1   
     7     3    36 1   
     8     3    37 1   
     9     4     5 1   
    10     4    13 1   
    11     4    38 1   
    12     5     6 1   
    13     5    39 1   
    14     6     7 2   
    15     6     8 1   
    16     8     9 1   
    17     8    40 1   
    18     8    41 1   
    19     9    10 1   
    20     9    42 1   
    21     9    43 1   
    22    10    11 1   
    23    10    12 1   
    24    10    44 1   
    25    11    45 1   
    26    11    46 1   
    27    11    47 1   
    28    12    48 1   
    29    12    49 1   
    30    12    50 1   
    31    13    14 2   
    32    13    15 1   
    33    15    16 1   
    34    15    51 1   
    35    16    17 1   
    36    16    29 1   
    37    16    52 1   
    38    17    18 1   
    39    17    19 1   
    40    17    53 1   
    41    18    54 1   
    42    19    20 1   
    43    19    55 1   
    44    19    56 1   
    45    20    21 1   
    46    20    22 1   
    47    20    57 1   
    48    21    58 1   
    49    21    59 1   
    50    21    60 1   
    51    22    23 2   
    52    22    24 1   
    53    24    25 1   
    54    24    61 1   
    55    25    26 1   
    56    25    62 1   
    57    25    63 1   
    58    26    27 1   
    59    26    64 1   
    60    26    65 1   
    61    27    28 1   
    62    27    66 1   
    63    27    67 1   
    64    28    68 1   
    65    28    69 1   
    66    28    70 1   
    67    29    30 1   
    68    29    71 1   
    69    29    72 1   
    70    30    31 1   
    71    30    32 1   
    72    30    73 1   
    73    31    74 1   
    74    31    75 1   
    75    31    76 1   
    76    32    77 1   
    77    32    78 1   
    78    32    79 1   
    79    33    80 1   
    80    33    81 1   
    81    33    82 1   
@<TRIPOS>SUBSTRUCTURE
     1 AFJ         1 TEMP              0 ****  ****    0 ROOT
