@<TRIPOS>MOLECULE
AFJ
   82    81     1     0     0
SMALL
No Charge or Current Charge


@<TRIPOS>ATOM
      1 S1           2.8410     3.6550     2.1790 ss         1 AFJ      -0.435000
      2 C2           3.1190     1.8650     1.8110 c3         1 AFJ       0.059600
      3 C5           1.9240     1.2880     1.0260 c3         1 AFJ      -0.078400
      4 C8           2.0220    -0.2340     0.7340 c3         1 AFJ       0.036700
      5 N10          3.2280    -0.5530    -0.0660 ns         1 AFJ      -0.494900
      6 C12          4.4540    -0.9080     0.4480 c          1 AFJ       0.601100
      7 O13          4.6520    -1.0240     1.6490 o          1 AFJ      -0.608100
      8 C14          5.5410    -1.1760    -0.5960 c3         1 AFJ      -0.152400
      9 C17          6.5670    -0.0140    -0.6500 c3         1 AFJ      -0.066400
     10 C20          7.7860    -0.2630    -1.5790 c3         1 AFJ      -0.061700
     11 C22          7.3850    -0.4540    -3.0620 c3         1 AFJ      -0.088100
     12 C26          8.8280     0.8690    -1.4370 c3         1 AFJ      -0.088100
     13 C30          0.7460    -0.7460     0.0060 c          1 AFJ       0.590100
     14 O31          0.7390    -1.0850    -1.1710 o          1 AFJ      -0.595100
     15 N32         -0.3920    -0.7940     0.7880 ns         1 AFJ      -0.500900
     16 C34         -1.7110    -1.2660     0.3300 c3         1 AFJ       0.081700
     17 C36         -2.6710    -0.0880    -0.0300 c3         1 AFJ       0.150300
     18 O38         -2.8660     0.7670     1.1080 oh         1 AFJ      -0.666000
     19 C40         -2.1660     0.7710    -1.2230 c3         1 AFJ      -0.105400
     20 C43         -3.1500     1.8860    -1.6830 c3         1 AFJ      -0.134700
     21 C45         -2.5910     2.6940    -2.8780 c3         1 AFJ      -0.080100
     22 C49         -4.5460     1.3110    -2.0040 c          1 AFJ       0.600100
     23 O50         -4.7410     0.5140    -2.9110 o          1 AFJ      -0.610100
     24 N51         -5.5600     1.7490    -1.1810 ns         1 AFJ      -0.502900
     25 C53         -6.9390     1.2630    -1.2240 c3         1 AFJ       0.098000
     26 C56         -7.0830    -0.1160    -0.5470 c3         1 AFJ      -0.095400
     27 C59         -8.5340    -0.6420    -0.5540 c3         1 AFJ      -0.073400
     28 C62         -8.6800    -2.0190     0.1220 c3         1 AFJ      -0.088100
     29 C66         -2.3300    -2.2440     1.3660 c3         1 AFJ      -0.086400
     30 C69         -1.4620    -3.4840     1.7280 c3         1 AFJ      -0.061700
     31 C71         -2.1380    -4.3220     2.8370 c3         1 AFJ      -0.088100
     32 C75         -1.1330    -4.3670     0.5000 c3         1 AFJ      -0.088100
     33 C79          4.4190     4.0440     3.0650 c3         1 AFJ       0.042900
     34 H2           4.0410     1.7650     1.2230 h1         1 AFJ       0.060700
     35 H2A          3.2450     1.3190     2.7550 h1         1 AFJ       0.060700
     36 H5           1.0100     1.4850     1.5990 hc         1 AFJ       0.068700
     37 H5A          1.8240     1.8310     0.0780 hc         1 AFJ       0.068700
     38 H8           2.0780    -0.7750     1.6880 h1         1 AFJ       0.069700
     39 HN10         3.1470    -0.5300    -1.0770 hn         1 AFJ       0.323500
     40 H14          6.0700    -2.0960    -0.3210 hc         1 AFJ       0.061200
     41 H14A         5.0810    -1.2900    -1.5840 hc         1 AFJ       0.061200
     42 H17          6.0530     0.9050    -0.9600 hc         1 AFJ       0.051200
     43 H17A         6.9360     0.1670     0.3680 hc         1 AFJ       0.051200
     44 H20          8.2720    -1.1900    -1.2500 hc         1 AFJ       0.047700
     45 H22          8.2750    -0.5800    -3.6900 hc         1 AFJ       0.033033
     46 H22A         6.7620    -1.3460    -3.1940 hc         1 AFJ       0.033033
     47 H22B         6.8270     0.4150    -3.4310 hc         1 AFJ       0.033033
     48 H26          9.1580     0.9650    -0.3950 hc         1 AFJ       0.033033
     49 H26A         9.7120     0.6630    -2.0520 hc         1 AFJ       0.033033
     50 H26B         8.4060     1.8310    -1.7540 hc         1 AFJ       0.033033
     51 HN32        -0.2890    -0.5330     1.7620 hn         1 AFJ       0.312500
     52 H34         -1.5690    -1.8360    -0.5980 h1         1 AFJ       0.090700
     53 H36         -3.6310    -0.5390    -0.3210 h1         1 AFJ       0.083700
     54 HO38        -2.0000     1.1830     1.3010 ho         1 AFJ       0.438000
     55 H40         -1.2050     1.2310    -0.9630 hc         1 AFJ       0.063200
     56 H40A        -1.9690     0.1030    -2.0710 hc         1 AFJ       0.063200
     57 H43         -3.2600     2.5920    -0.8500 hc         1 AFJ       0.049700
     58 H45         -3.2860     3.4950    -3.1610 hc         1 AFJ       0.044367
     59 H45A        -1.6290     3.1530    -2.6210 hc         1 AFJ       0.044367
     60 H45B        -2.4400     2.0480    -3.7520 hc         1 AFJ       0.044367
     61 HN51        -5.2980     2.3960    -0.4460 hn         1 AFJ       0.316500
     62 H53         -7.5820     1.9910    -0.7120 h1         1 AFJ       0.053700
     63 H53A        -7.2670     1.1990    -2.2710 h1         1 AFJ       0.053700
     64 H56         -6.4360    -0.8400    -1.0560 hc         1 AFJ       0.042700
     65 H56A        -6.7300    -0.0440     0.4900 hc         1 AFJ       0.042700
     66 H59         -9.1850     0.0780    -0.0410 hc         1 AFJ       0.039700
     67 H59A        -8.8900    -0.7140    -1.5900 hc         1 AFJ       0.039700
     68 H62         -8.0660    -2.7700    -0.3910 hc         1 AFJ       0.032700
     69 H62A        -8.3640    -1.9720     1.1710 hc         1 AFJ       0.032700
     70 H62B        -9.7240    -2.3510     0.0930 hc         1 AFJ       0.032700
     71 H66         -2.5460    -1.6890     2.2870 hc         1 AFJ       0.049200
     72 H66A        -3.2990    -2.5910     0.9840 hc         1 AFJ       0.049200
     73 H69         -0.5090    -3.1270     2.1390 hc         1 AFJ       0.059700
     74 H71         -3.1000    -4.7230     2.4940 hc         1 AFJ       0.033867
     75 H71A        -1.5010    -5.1640     3.1320 hc         1 AFJ       0.033867
     76 H71B        -2.3200    -3.7100     3.7300 hc         1 AFJ       0.033867
     77 H75         -0.5240    -3.8210    -0.2300 hc         1 AFJ       0.033867
     78 H75A        -0.5640    -5.2540     0.8030 hc         1 AFJ       0.033867
     79 H75B        -2.0510    -4.7040     0.0030 hc         1 AFJ       0.033867
     80 H79          4.4250     5.0990     3.3650 h1         1 AFJ       0.061700
     81 H79A         4.5090     3.4150     3.9600 h1         1 AFJ       0.061700
     82 H79B         5.2740     3.8550     2.4040 h1         1 AFJ       0.061700
@<TRIPOS>BOND
     1     1     2 1   
     2     1    33 1   
     3     2     3 1   
     4     2    34 1   
     5     2    35 1   
     6     3     4 1   
     7     3    36 1   
     8     3    37 1   
     9     4     5 1   
    10     4    13 1   
    11     4    38 1   
    12     5     6 1   
    13     5    39 1   
    14     6     7 2   
    15     6     8 1   
    16     8     9 1   
    17     8    40 1   
    18     8    41 1   
    19     9    10 1   
    20     9    42 1   
    21     9    43 1   
    22    10    11 1   
    23    10    12 1   
    24    10    44 1   
    25    11    45 1   
    26    11    46 1   
    27    11    47 1   
    28    12    48 1   
    29    12    49 1   
    30    12    50 1   
    31    13    14 2   
    32    13    15 1   
    33    15    16 1   
    34    15    51 1   
    35    16    17 1   
    36    16    29 1   
    37    16    52 1   
    38    17    18 1   
    39    17    19 1   
    40    17    53 1   
    41    18    54 1   
    42    19    20 1   
    43    19    55 1   
    44    19    56 1   
    45    20    21 1   
    46    20    22 1   
    47    20    57 1   
    48    21    58 1   
    49    21    59 1   
    50    21    60 1   
    51    22    23 2   
    52    22    24 1   
    53    24    25 1   
    54    24    61 1   
    55    25    26 1   
    56    25    62 1   
    57    25    63 1   
    58    26    27 1   
    59    26    64 1   
    60    26    65 1   
    61    27    28 1   
    62    27    66 1   
    63    27    67 1   
    64    28    68 1   
    65    28    69 1   
    66    28    70 1   
    67    29    30 1   
    68    29    71 1   
    69    29    72 1   
    70    30    31 1   
    71    30    32 1   
    72    30    73 1   
    73    31    74 1   
    74    31    75 1   
    75    31    76 1   
    76    32    77 1   
    77    32    78 1   
    78    32    79 1   
    79    33    80 1   
    80    33    81 1   
    81    33    82 1   
@<TRIPOS>SUBSTRUCTURE
     1 AFJ         1 TEMP              0 ****  ****    0 ROOT
