@<TRIPOS>MOLECULE
AFK
   34    35     1     0     0
SMALL
abcg2


@<TRIPOS>ATOM
      1 C1          -1.9100    -0.6830     0.6030 ca         1 AFK       0.160100
      2 C2          -3.2940    -0.5550     0.5710 ca         1 AFK      -0.199000
      3 C3          -3.8750     0.6230     0.1130 ca         1 AFK      -0.065000
      4 C4          -3.1060     1.6950    -0.3160 ca         1 AFK      -0.116300
      5 C5          -3.7260     2.9800    -0.7840 c3         1 AFK      -0.038800
      6 C6          -1.7190     1.5420    -0.2890 ca         1 AFK      -0.060000
      7 C14          1.0630    -0.6210    -0.6500 ca         1 AFK       0.142000
      8 CL           0.1980    -1.6570    -1.7400 cl         1 AFK      -0.205000
      9 C13          2.4470    -0.6820    -0.6500 ca         1 AFK      -0.112000
     10 C11          3.1890     0.1540     0.1790 ca         1 AFK      -0.078300
     11 C12          4.6930     0.0450     0.1980 c3         1 AFK       0.197100
     12 N            5.3280     1.3040     0.5380 n8         1 AFK      -1.000200
     13 C10          2.5080     1.0580     0.9870 ca         1 AFK      -0.090000
     14 C9           1.1230     1.1100     0.9740 ca         1 AFK      -0.098000
     15 C8           0.3640     0.2700     0.1610 cp         1 AFK      -0.011000
     16 C7          -1.1100     0.3760     0.1490 cp         1 AFK      -0.073000
     17 O           -1.2570    -1.7660     1.0610 os         1 AFK      -0.330100
     18 C           -2.0080    -2.9110     1.4070 c3         1 AFK       0.147900
     19 H1          -3.9370    -1.3580     0.9040 ha         1 AFK       0.117000
     20 H2          -4.9560     0.6970     0.0980 ha         1 AFK       0.110000
     21 H3          -3.6500     3.7570    -0.0210 hc         1 AFK       0.039700
     22 H4          -3.2290     3.3590    -1.6780 hc         1 AFK       0.039700
     23 H5          -4.7820     2.8540    -1.0160 hc         1 AFK       0.039700
     24 H6          -1.0900     2.3540    -0.6390 ha         1 AFK       0.116000
     25 H7           2.9520    -1.3790    -1.3070 ha         1 AFK       0.123000
     26 H8           4.9730    -0.6900     0.9580 h1         1 AFK       0.036700
     27 H9           5.0230    -0.3780    -0.7600 h1         1 AFK       0.036700
     28 H10          6.3210     1.1550     0.6600 hn         1 AFK       0.397500
     29 H11          5.2340     1.9510    -0.2340 hn         1 AFK       0.397500
     30 H13          3.0660     1.7270     1.6280 ha         1 AFK       0.135000
     31 H14          0.6090     1.8170     1.6130 ha         1 AFK       0.119000
     32 H15         -1.2910    -3.6730     1.7020 h1         1 AFK       0.040367
     33 H16         -2.6820    -2.7210     2.2460 h1         1 AFK       0.040367
     34 H17         -2.5930    -3.2850     0.5630 h1         1 AFK       0.040367
@<TRIPOS>BOND
     1     1     2 ar  
     2     1    16 ar  
     3     1    17 1   
     4     2     3 ar  
     5     2    19 1   
     6     3     4 ar  
     7     3    20 1   
     8     4     5 1   
     9     4     6 ar  
    10     5    21 1   
    11     5    22 1   
    12     5    23 1   
    13     6    16 ar  
    14     6    24 1   
    15     7     8 1   
    16     7     9 ar  
    17     7    15 ar  
    18     9    10 ar  
    19     9    25 1   
    20    10    11 1   
    21    10    13 ar  
    22    11    12 1   
    23    11    26 1   
    24    11    27 1   
    25    12    28 1   
    26    12    29 1   
    27    13    14 ar  
    28    13    30 1   
    29    14    15 ar  
    30    14    31 1   
    31    15    16 1   
    32    17    18 1   
    33    18    32 1   
    34    18    33 1   
    35    18    34 1   
@<TRIPOS>SUBSTRUCTURE
     1 AFK         1 TEMP              0 ****  ****    0 ROOT
