@<TRIPOS>MOLECULE
AFK
   34    35     1     0     0
SMALL
No Charge or Current Charge


@<TRIPOS>ATOM
      1 C1          -1.9310    -0.6920     0.5260 ca         1 AFK       0.160100
      2 C2          -3.3370    -0.5800     0.4560 ca         1 AFK      -0.199000
      3 C3          -3.9260     0.6280     0.0480 ca         1 AFK      -0.065000
      4 C4          -3.1220     1.7320    -0.2880 ca         1 AFK      -0.116300
      5 C5          -3.7610     3.0440    -0.7210 c3         1 AFK      -0.038800
      6 C6          -1.7210     1.6180    -0.2150 ca         1 AFK      -0.060000
      7 C14          1.1320    -0.4990    -0.6390 ca         1 AFK       0.142000
      8 Cl           0.3430    -1.4480    -1.9010 cl         1 AFK      -0.205000
      9 C13          2.5340    -0.5530    -0.5520 ca         1 AFK      -0.112000
     10 C11          3.2230     0.2110     0.4100 ca         1 AFK      -0.078300
     11 C12          4.7420     0.1450     0.5040 c3         1 AFK       0.197100
     12 N            5.3790     1.2320    -0.2620 n8         1 AFK      -1.000200
     13 C10          2.4920     1.0390     1.2820 ca         1 AFK      -0.090000
     14 C9           1.0910     1.0960     1.1970 ca         1 AFK      -0.098000
     15 C8           0.3850     0.3240     0.2450 cp         1 AFK      -0.011000
     16 C7          -1.1040     0.4080     0.1800 cp         1 AFK      -0.073000
     17 O           -1.3000    -1.8470     0.9470 os         1 AFK      -0.330100
     18 C           -2.0290    -3.0390     1.2890 c3         1 AFK       0.147900
     19 H1          -3.9840    -1.4120     0.7170 ha         1 AFK       0.117000
     20 H2          -5.0100     0.7080    -0.0010 ha         1 AFK       0.110000
     21 H3          -3.9140     3.7060     0.1400 hc         1 AFK       0.039700
     22 H4          -3.1320     3.5750    -1.4450 hc         1 AFK       0.039700
     23 H5          -4.7370     2.8780    -1.1930 hc         1 AFK       0.039700
     24 H6          -1.0990     2.4720    -0.4730 ha         1 AFK       0.116000
     25 H7           3.0870    -1.1890    -1.2400 ha         1 AFK       0.123000
     26 H8           5.0520     0.2220     1.5560 h1         1 AFK       0.036700
     27 H9           5.0970    -0.8200     0.1150 h1         1 AFK       0.036700
     28 H10          6.3970     1.0980    -0.2450 hn         1 AFK       0.397500
     29 H11          5.1350     1.1190    -1.2540 hn         1 AFK       0.397500
     30 H13          3.0120     1.6400     2.0250 ha         1 AFK       0.135000
     31 H14          0.5400     1.7400     1.8790 ha         1 AFK       0.119000
     32 H15         -1.3350    -3.8360     1.5830 h1         1 AFK       0.040367
     33 H16         -2.7100    -2.8530     2.1290 h1         1 AFK       0.040367
     34 H17         -2.6140    -3.3970     0.4320 h1         1 AFK       0.040367
@<TRIPOS>BOND
     1     1     2 ar  
     2     1    16 ar  
     3     1    17 1   
     4     2     3 ar  
     5     2    19 1   
     6     3     4 ar  
     7     3    20 1   
     8     4     5 1   
     9     4     6 ar  
    10     5    21 1   
    11     5    22 1   
    12     5    23 1   
    13     6    16 ar  
    14     6    24 1   
    15     7     8 1   
    16     7     9 ar  
    17     7    15 ar  
    18     9    10 ar  
    19     9    25 1   
    20    10    11 1   
    21    10    13 ar  
    22    11    12 1   
    23    11    26 1   
    24    11    27 1   
    25    12    28 1   
    26    12    29 1   
    27    13    14 ar  
    28    13    30 1   
    29    14    15 ar  
    30    14    31 1   
    31    15    16 1   
    32    17    18 1   
    33    18    32 1   
    34    18    33 1   
    35    18    34 1   
@<TRIPOS>SUBSTRUCTURE
     1 AFK         1 TEMP              0 ****  ****    0 ROOT
