@<TRIPOS>MOLECULE
AFM
   58    62     1     0     0
SMALL
No Charge or Current Charge


@<TRIPOS>ATOM
      1 C10        -22.0600    27.7710    17.5510 ca         1 AFM       0.103100
      2 C13        -24.1600    26.0880    16.8280 ca         1 AFM      -0.064200
      3 C17        -23.1960    25.6470    17.6750 ca         1 AFM      -0.194900
      4 C21        -18.0600    32.2360    18.3710 c6         1 AFM       0.145800
      5 C22        -17.3540    31.0500    17.6730 c6         1 AFM      -0.108400
      6 C24        -15.8970    26.9150    16.7470 ca         1 AFM      -0.183600
      7 C28        -13.7000    24.7540    20.2190 cc         1 AFM       0.228300
      8 C02        -16.4190    26.4700    15.5080 ca         1 AFM       0.217000
      9 C03        -17.5280    27.1020    14.9270 ca         1 AFM      -0.158000
     10 C04        -18.1390    28.1920    15.5620 ca         1 AFM      -0.058000
     11 C05        -17.6400    28.6610    16.7890 ca         1 AFM      -0.100300
     12 C06        -18.3240    29.8510    17.4840 c6         1 AFM      -0.009400
     13 C07        -18.9540    29.4610    18.8580 c6         1 AFM      -0.090700
     14 C08        -19.9600    28.2780    18.7440 c3         1 AFM       0.169600
     15 O09        -21.0440    28.6480    17.8720 os         1 AFM      -0.359100
     16 C11        -23.0690    28.2270    16.6670 ca         1 AFM      -0.096000
     17 C12        -24.1380    27.3820    16.2940 ca         1 AFM      -0.097000
     18 N14        -25.0710    25.0660    16.6370 na         1 AFM      -0.071400
     19 N15        -24.6920    23.9300    17.3780 nc         1 AFM      -0.510100
     20 C16        -23.5570    24.2880    18.0040 cd         1 AFM       0.346800
     21 C18        -22.1170    26.4520    18.0720 ca         1 AFM      -0.129000
     22 C19        -19.6110    30.7000    19.5250 c6         1 AFM       0.149800
     23 N20        -18.6400    31.8150    19.6690 n7         1 AFM      -0.841400
     24 C23        -16.5270    28.0210    17.3750 ca         1 AFM      -0.069000
     25 N26        -14.4200    26.5830    18.6840 ns         1 AFM      -0.494900
     26 C27        -13.3220    26.0210    19.4880 c3         1 AFM       0.081700
     27 C29        -13.5890    23.4800    19.6430 cc         1 AFM      -0.223000
     28 C30        -14.0150    22.5780    20.5680 cd         1 AFM      -0.158000
     29 N31        -14.3690    23.3600    21.6760 na         1 AFM      -0.016200
     30 N32        -14.1710    24.7240    21.4520 nd         1 AFM      -0.517800
     31 O33        -13.9910    25.4320    16.7870 o          1 AFM      -0.578100
     32 H1         -17.3390    33.0510    18.5330 h1         1 AFM       0.056200
     33 H2         -18.8570    32.6250    17.7190 h1         1 AFM       0.056200
     34 H3         -16.4790    30.7490    18.2650 hc         1 AFM       0.048700
     35 H4         -16.9700    31.3750    16.6960 hc         1 AFM       0.048700
     36 H5         -17.9180    26.7390    13.9800 ha         1 AFM       0.138000
     37 H6         -19.0020    28.6670    15.1000 ha         1 AFM       0.124000
     38 H7         -19.1380    30.2040    16.8350 hc         1 AFM       0.070700
     39 H8         -18.1570    29.1040    19.5240 hc         1 AFM       0.048700
     40 H9         -20.3380    28.0340    19.7460 h1         1 AFM       0.039700
     41 H10        -19.4340    27.3970    18.3540 h1         1 AFM       0.039700
     42 H11        -23.0180    29.2380    16.2730 ha         1 AFM       0.127000
     43 H12        -24.9150    27.7280    15.6150 ha         1 AFM       0.123000
     44 H13        -25.9080    25.0900    16.0540 hn         1 AFM       0.376000
     45 H14        -23.0580    23.5740    18.6480 h4         1 AFM       0.048800
     46 H15        -21.3660    26.0600    18.7520 ha         1 AFM       0.123000
     47 H16        -20.4670    31.0370    18.9190 h1         1 AFM       0.061700
     48 H17        -20.0020    30.4230    20.5160 h1         1 AFM       0.061700
     49 H18        -17.8740    31.4990    20.2760 hn         1 AFM       0.399000
     50 H20        -16.1560    28.4060    18.3210 ha         1 AFM       0.115000
     51 H21        -15.0580    27.2280    19.1310 hn         1 AFM       0.317500
     52 H22        -12.4600    25.8200    18.8390 h1         1 AFM       0.066200
     53 H23        -13.0090    26.7750    20.2210 h1         1 AFM       0.066200
     54 H24        -13.2300    23.2760    18.6390 ha         1 AFM       0.146000
     55 H25        -14.0960    21.4960    20.5400 h4         1 AFM       0.154000
     56 H26        -14.7340    23.0130    22.5630 hn         1 AFM       0.372000
     57 C25        -14.7000    26.2320    17.3800 c          1 AFM       0.619700
     58 F01        -15.8870    25.4130    14.8540 f          1 AFM      -0.161000
@<TRIPOS>BOND
     1     1    15 1   
     2     1    16 ar  
     3     1    21 ar  
     4     2     3 ar  
     5     2    17 ar  
     6     2    18 1   
     7     3    20 1   
     8     3    21 ar  
     9     4     5 1   
    10     4    23 1   
    11     4    32 1   
    12     4    33 1   
    13     5    12 1   
    14     5    34 1   
    15     5    35 1   
    16     6     8 ar  
    17     6    24 ar  
    18     6    57 1   
    19     7    26 1   
    20     7    27 1   
    21     7    30 2   
    22     8     9 ar  
    23     8    58 1   
    24     9    10 ar  
    25     9    36 1   
    26    10    11 ar  
    27    10    37 1   
    28    11    12 1   
    29    11    24 ar  
    30    12    13 1   
    31    12    38 1   
    32    13    14 1   
    33    13    22 1   
    34    13    39 1   
    35    14    15 1   
    36    14    40 1   
    37    14    41 1   
    38    16    17 ar  
    39    16    42 1   
    40    17    43 1   
    41    18    19 1   
    42    18    44 1   
    43    19    20 2   
    44    20    45 1   
    45    21    46 1   
    46    22    23 1   
    47    22    47 1   
    48    22    48 1   
    49    23    49 1   
    50    24    50 1   
    51    25    26 1   
    52    25    51 1   
    53    25    57 1   
    54    26    52 1   
    55    26    53 1   
    56    27    28 2   
    57    27    54 1   
    58    28    29 1   
    59    28    55 1   
    60    29    30 1   
    61    29    56 1   
    62    31    57 2   
@<TRIPOS>SUBSTRUCTURE
     1 AFM         1 TEMP              0 ****  ****    0 ROOT
