@<TRIPOS>MOLECULE
AFM
   58    62     1     0     0
SMALL
abcg2


@<TRIPOS>ATOM
      1 C10        -21.9960    27.8340    17.6220 ca         1 AFM       0.103100
      2 C13        -24.1370    26.1630    17.0980 ca         1 AFM      -0.064200
      3 C17        -23.1740    25.8040    18.0640 ca         1 AFM      -0.194900
      4 C21        -18.1480    32.3550    17.9660 c6         1 AFM       0.145800
      5 C22        -17.4260    31.1290    17.4080 c6         1 AFM      -0.108400
      6 C24        -15.9210    27.0000    16.9570 ca         1 AFM      -0.183600
      7 C28        -13.7770    24.3210    19.9510 cc         1 AFM       0.228300
      8 C02        -16.3980    26.4410    15.7750 ca         1 AFM       0.217000
      9 C03        -17.4880    26.9590    15.1050 ca         1 AFM      -0.158000
     10 C04        -18.1200    28.0860    15.6200 ca         1 AFM      -0.058000
     11 C05        -17.6760    28.6890    16.7960 ca         1 AFM      -0.100300
     12 C06        -18.3660    29.9150    17.3420 c6         1 AFM      -0.009400
     13 C07        -19.0040    29.6700    18.7270 c6         1 AFM      -0.090700
     14 C08        -19.9780    28.5040    18.7340 c3         1 AFM       0.169600
     15 O09        -21.0060    28.7590    17.7740 os         1 AFM      -0.359100
     16 C11        -22.9720    28.1770    16.6500 ca         1 AFM      -0.096000
     17 C12        -24.0440    27.3610    16.3760 ca         1 AFM      -0.097000
     18 N14        -25.0520    25.1530    17.0800 na         1 AFM      -0.071400
     19 N15        -24.7470    24.1760    17.9620 nc         1 AFM      -0.510100
     20 C16        -23.6250    24.5490    18.5590 cd         1 AFM       0.346800
     21 C18        -22.0810    26.6520    18.3340 ca         1 AFM      -0.129000
     22 C19        -19.6630    30.9590    19.2420 c6         1 AFM       0.149800
     23 N20        -18.7710    32.1200    19.2710 n7         1 AFM      -0.841400
     24 C23        -16.5820    28.1250    17.4510 ca         1 AFM      -0.069000
     25 N26        -14.8390    26.3460    18.9970 ns         1 AFM      -0.494900
     26 C27        -13.7820    25.8210    19.8360 c3         1 AFM       0.081700
     27 C29        -12.7360    23.5130    20.4590 cc         1 AFM      -0.223000
     28 C30        -13.2230    22.2240    20.3890 cd         1 AFM      -0.158000
     29 N31        -14.4650    22.3120    19.8710 na         1 AFM      -0.016200
     30 N32        -14.8260    23.5830    19.5960 nd         1 AFM      -0.517800
     31 O33        -13.6970    26.1220    17.0510 o          1 AFM      -0.578100
     32 H1         -17.4550    33.1930    18.0570 h1         1 AFM       0.056200
     33 H2         -18.9360    32.6600    17.2690 h1         1 AFM       0.056200
     34 H3         -16.5680    30.8970    18.0470 hc         1 AFM       0.048700
     35 H4         -17.0360    31.3440    16.4090 hc         1 AFM       0.048700
     36 H5         -17.8350    26.4800    14.1990 ha         1 AFM       0.138000
     37 H6         -18.9750    28.4980    15.1000 ha         1 AFM       0.124000
     38 H7         -19.1770    30.1660    16.6530 hc         1 AFM       0.070700
     39 H8         -18.2080    29.4000    19.4300 hc         1 AFM       0.048700
     40 H9         -20.4250    28.3920    19.7270 h1         1 AFM       0.039700
     41 H10        -19.4680    27.5700    18.4810 h1         1 AFM       0.039700
     42 H11        -22.8500    29.1150    16.1240 ha         1 AFM       0.127000
     43 H12        -24.7820    27.6360    15.6340 ha         1 AFM       0.123000
     44 H13        -25.8790    25.0730    16.5110 hn         1 AFM       0.376000
     45 H14        -23.1780    23.9220    19.3150 h4         1 AFM       0.048800
     46 H15        -21.3470    26.3780    19.0760 ha         1 AFM       0.123000
     47 H16        -20.5150    31.2070    18.6020 h1         1 AFM       0.061700
     48 H17        -20.0520    30.7920    20.2490 h1         1 AFM       0.061700
     49 H18        -18.0390    31.9520    19.9560 hn         1 AFM       0.399000
     50 H20        -16.2140    28.5780    18.3630 ha         1 AFM       0.115000
     51 H21        -15.7410    26.5060    19.4150 hn         1 AFM       0.317500
     52 H22        -12.8240    26.1540    19.4360 h1         1 AFM       0.066200
     53 H23        -13.8930    26.2660    20.8270 h1         1 AFM       0.066200
     54 H24        -11.7710    23.8280    20.8190 ha         1 AFM       0.146000
     55 H25        -12.7880    21.2760    20.6590 h4         1 AFM       0.154000
     56 H26        -15.1030    21.5580    19.6740 hn         1 AFM       0.372000
     57 C25        -14.7200    26.4390    17.6570 c          1 AFM       0.619700
     58 F01        -15.8060    25.3330    15.2700 f          1 AFM      -0.161000
@<TRIPOS>BOND
     1     1    15 1   
     2     1    16 ar  
     3     1    21 ar  
     4     2     3 ar  
     5     2    17 ar  
     6     2    18 1   
     7     3    20 1   
     8     3    21 ar  
     9     4     5 1   
    10     4    23 1   
    11     4    32 1   
    12     4    33 1   
    13     5    12 1   
    14     5    34 1   
    15     5    35 1   
    16     6     8 ar  
    17     6    24 ar  
    18     6    57 1   
    19     7    26 1   
    20     7    27 1   
    21     7    30 2   
    22     8     9 ar  
    23     8    58 1   
    24     9    10 ar  
    25     9    36 1   
    26    10    11 ar  
    27    10    37 1   
    28    11    12 1   
    29    11    24 ar  
    30    12    13 1   
    31    12    38 1   
    32    13    14 1   
    33    13    22 1   
    34    13    39 1   
    35    14    15 1   
    36    14    40 1   
    37    14    41 1   
    38    16    17 ar  
    39    16    42 1   
    40    17    43 1   
    41    18    19 1   
    42    18    44 1   
    43    19    20 2   
    44    20    45 1   
    45    21    46 1   
    46    22    23 1   
    47    22    47 1   
    48    22    48 1   
    49    23    49 1   
    50    24    50 1   
    51    25    26 1   
    52    25    51 1   
    53    25    57 1   
    54    26    52 1   
    55    26    53 1   
    56    27    28 2   
    57    27    54 1   
    58    28    29 1   
    59    28    55 1   
    60    29    30 1   
    61    29    56 1   
    62    31    57 2   
@<TRIPOS>SUBSTRUCTURE
     1 AFM         1 TEMP              0 ****  ****    0 ROOT
