@<TRIPOS>MOLECULE
AFN
   38    42     1     0     0
SMALL
No Charge or Current Charge


@<TRIPOS>ATOM
      1 C8A         -0.7060    -1.3690    -3.7920 c5         1 AFN       0.104600
      2 C9          -1.6950    -0.5830    -2.8760 c5         1 AFN       0.148300
      3 O9          -2.9280    -0.2710    -3.5420 oh         1 AFN      -0.707000
      4 C9A         -0.8700     0.7160    -2.5950 c5         1 AFN      -0.034400
      5 C9B          0.0660     0.4580    -1.4480 ca         1 AFN      -0.273300
      6 O7          -0.1410    -0.3430    -4.6320 os         1 AFN      -0.426000
      7 C6A          0.1800     0.7740    -3.7760 c5         1 AFN       0.367300
      8 O6A          1.5250     0.5480    -3.2290 os         1 AFN      -0.340100
      9 C5A          1.3610     0.3860    -1.8820 ca         1 AFN       0.246100
     10 C5B          2.4160     0.1600    -1.0010 ca         1 AFN      -0.282000
     11 C4B          2.1370     0.0060     0.3750 ca         1 AFN       0.259100
     12 O4           3.1470    -0.2140     1.2890 os         1 AFN      -0.336100
     13 CM           4.5320    -0.3020     0.9100 c3         1 AFN       0.145900
     14 C4A          0.7970     0.0810     0.8320 ca         1 AFN      -0.245800
     15 C10         -0.2380     0.3150    -0.0910 ca         1 AFN       0.289100
     16 O10         -1.5450     0.4150     0.3160 os         1 AFN      -0.344200
     17 C11         -1.9630     0.3020     1.6140 c          1 AFN       0.705300
     18 O11         -3.1450     0.3980     1.9030 o          1 AFN      -0.450000
     19 C12         -0.9060     0.0340     2.5920 cc         1 AFN      -0.381400
     20 C3A          0.4080    -0.0640     2.2350 cd         1 AFN       0.128600
     21 C3           1.2260    -0.1980     3.5150 c5         1 AFN      -0.047200
     22 C2A          0.1870    -0.5400     4.6290 c5         1 AFN      -0.192400
     23 C1          -1.1320    -0.1010     4.0140 c          1 AFN       0.600300
     24 O1          -2.1530     0.2000     4.6150 o          1 AFN      -0.493100
     25 H8A2         0.0950    -1.8480    -3.2120 h1         1 AFN       0.063200
     26 H8A         -1.1990    -2.1330    -4.4080 h1         1 AFN       0.063200
     27 H9          -1.9000    -1.1400    -1.9500 h1         1 AFN       0.071700
     28 HO9         -3.3980    -1.1230    -3.7040 ho         1 AFN       0.511000
     29 H9A         -1.4730     1.6240    -2.4900 hc         1 AFN       0.112700
     30 H6A          0.1390     1.7220    -4.3310 h2         1 AFN       0.121700
     31 H5B          3.4250     0.1110    -1.3970 ha         1 AFN       0.147000
     32 HM1          5.1560    -0.4800     1.7940 h1         1 AFN       0.052367
     33 HM2          4.6930    -1.1300     0.2080 h1         1 AFN       0.052367
     34 HM3          4.8680     0.6310     0.4390 h1         1 AFN       0.052367
     35 H31          1.7500     0.7390     3.7390 hc         1 AFN       0.077200
     36 H32          1.9920    -0.9780     3.4470 hc         1 AFN       0.077200
     37 H2A1         0.3510    -0.0790     5.6080 hc         1 AFN       0.079200
     38 H2A2         0.1330    -1.6260     4.7640 hc         1 AFN       0.079200
@<TRIPOS>BOND
     1     1     2 1   
     2     1     6 1   
     3     1    25 1   
     4     1    26 1   
     5     2     3 1   
     6     2     4 1   
     7     2    27 1   
     8     3    28 1   
     9     4     5 1   
    10     4     7 1   
    11     4    29 1   
    12     5     9 ar  
    13     5    15 ar  
    14     6     7 1   
    15     7     8 1   
    16     7    30 1   
    17     8     9 1   
    18     9    10 ar  
    19    10    11 ar  
    20    10    31 1   
    21    11    12 1   
    22    11    14 ar  
    23    12    13 1   
    24    13    32 1   
    25    13    33 1   
    26    13    34 1   
    27    14    15 ar  
    28    14    20 1   
    29    15    16 1   
    30    16    17 1   
    31    17    18 2   
    32    17    19 1   
    33    19    20 2   
    34    19    23 1   
    35    20    21 1   
    36    21    22 1   
    37    21    35 1   
    38    21    36 1   
    39    22    23 1   
    40    22    37 1   
    41    22    38 1   
    42    23    24 2   
@<TRIPOS>SUBSTRUCTURE
     1 AFN         1 TEMP              0 ****  ****    0 ROOT
