@<TRIPOS>MOLECULE
AFN
   38    42     1     0     0
SMALL
abcg2


@<TRIPOS>ATOM
      1 C8A         -0.8100    -1.3960    -3.7600 c5         1 AFN       0.104600
      2 C9          -1.7510    -0.5330    -2.9320 c5         1 AFN       0.148300
      3 O9          -2.8140    -0.0130    -3.6900 oh         1 AFN      -0.707000
      4 C9A         -0.8350     0.6420    -2.5730 c5         1 AFN      -0.034400
      5 C9B          0.0480     0.4080    -1.3930 ca         1 AFN      -0.273300
      6 O7          -0.0360    -0.4610    -4.5080 os         1 AFN      -0.426000
      7 C6A          0.1980     0.6510    -3.7300 c5         1 AFN       0.367300
      8 O6A          1.5040     0.5640    -3.1180 os         1 AFN      -0.340100
      9 C5A          1.3690     0.3770    -1.8040 ca         1 AFN       0.246100
     10 C5B          2.4420     0.1900    -0.9450 ca         1 AFN      -0.282000
     11 C4B          2.1580     0.0290     0.4040 ca         1 AFN       0.259100
     12 O4           3.0970    -0.1600     1.3230 os         1 AFN      -0.336100
     13 CM           4.4620    -0.1900     0.9330 c3         1 AFN       0.145900
     14 C4A          0.8180     0.0610     0.8830 ca         1 AFN      -0.245800
     15 C10         -0.2200     0.2600    -0.0530 ca         1 AFN       0.289100
     16 O10         -1.5120     0.3170     0.3180 os         1 AFN      -0.344200
     17 C11         -1.9480     0.1870     1.6090 c          1 AFN       0.705300
     18 O11         -3.1320     0.2600     1.7960 o          1 AFN      -0.450000
     19 C12         -0.9070    -0.0230     2.5750 cc         1 AFN      -0.381400
     20 C3A          0.4180    -0.0840     2.2380 cd         1 AFN       0.128600
     21 C3           1.2670    -0.3120     3.4530 c5         1 AFN      -0.047200
     22 C2A          0.2770    -0.3910     4.6160 c5         1 AFN      -0.192400
     23 C1          -1.0990    -0.1980     4.0120 c          1 AFN       0.600300
     24 O1          -2.1470    -0.1930     4.6200 o          1 AFN      -0.493100
     25 H8A2        -0.1760    -2.0120    -3.1120 h1         1 AFN       0.063200
     26 H8A         -1.3240    -2.0580    -4.4580 h1         1 AFN       0.063200
     27 H9          -2.1040    -1.0700    -2.0470 h1         1 AFN       0.071700
     28 HO9         -3.3850    -0.7410    -3.9580 ho         1 AFN       0.511000
     29 H9A         -1.3950     1.5750    -2.4970 hc         1 AFN       0.112700
     30 H6A          0.2090     1.5380    -4.3620 h2         1 AFN       0.121700
     31 H5B          3.4520     0.1760    -1.3300 ha         1 AFN       0.147000
     32 HM1          5.0320    -0.3560     1.8420 h1         1 AFN       0.052367
     33 HM2          4.6590    -1.0030     0.2320 h1         1 AFN       0.052367
     34 HM3          4.7680     0.7570     0.4840 h1         1 AFN       0.052367
     35 H31          1.9840     0.5010     3.5720 hc         1 AFN       0.077200
     36 H32          1.8520    -1.2250     3.3440 hc         1 AFN       0.077200
     37 H2A1         0.4570     0.3770     5.3690 hc         1 AFN       0.079200
     38 H2A2         0.3150    -1.3540     5.1290 hc         1 AFN       0.079200
@<TRIPOS>BOND
     1     1     2 1   
     2     1     6 1   
     3     1    25 1   
     4     1    26 1   
     5     2     3 1   
     6     2     4 1   
     7     2    27 1   
     8     3    28 1   
     9     4     5 1   
    10     4     7 1   
    11     4    29 1   
    12     5     9 ar  
    13     5    15 ar  
    14     6     7 1   
    15     7     8 1   
    16     7    30 1   
    17     8     9 1   
    18     9    10 ar  
    19    10    11 ar  
    20    10    31 1   
    21    11    12 1   
    22    11    14 ar  
    23    12    13 1   
    24    13    32 1   
    25    13    33 1   
    26    13    34 1   
    27    14    15 ar  
    28    14    20 1   
    29    15    16 1   
    30    16    17 1   
    31    17    18 2   
    32    17    19 1   
    33    19    20 2   
    34    19    23 1   
    35    20    21 1   
    36    21    22 1   
    37    21    35 1   
    38    21    36 1   
    39    22    23 1   
    40    22    37 1   
    41    22    38 1   
    42    23    24 2   
@<TRIPOS>SUBSTRUCTURE
     1 AFN         1 TEMP              0 ****  ****    0 ROOT
