@<TRIPOS>MOLECULE
AFO
   44    44     1     0     0
SMALL
bcc


@<TRIPOS>ATOM
      1 C1          92.8770     9.9160     1.5630 c5         1 AFO       0.339900
      2 O1          93.8700    10.1510     2.5060 os         1 AFO      -0.425600
      3 C2          93.2230     8.6400     0.8030 c5         1 AFO       0.122100
      4 O2          92.0230     8.1590     0.2530 oh         1 AFO      -0.584800
      5 C3          94.1760     9.1590    -0.2790 c5         1 AFO       0.083100
      6 O3          95.4920     9.0880     0.2070 oh         1 AFO      -0.570800
      7 C4          93.6790    10.6000    -0.5060 c5         1 AFO       0.114100
      8 O4          92.8130    10.9110     0.5830 os         1 AFO      -0.403600
      9 C5          92.9280    10.7500    -1.8100 c3         1 AFO       0.135400
     10 O5          92.5130    12.0870    -1.9520 oh         1 AFO      -0.579800
     11 C9          93.6470    11.2750     3.3350 c3         1 AFO       0.144400
     12 C10         94.7760    11.3790     4.3410 c3         1 AFO      -0.081400
     13 C11         94.5970    12.5820     5.2610 c3         1 AFO      -0.073400
     14 C12         95.8110    12.8670     6.1430 c3         1 AFO      -0.069400
     15 C13         96.2420    11.7210     7.0560 c3         1 AFO      -0.074400
     16 C6          95.1680    11.2640     8.0360 c3         1 AFO      -0.076400
     17 C7          95.6590    10.1860     8.9950 c3         1 AFO      -0.076400
     18 C8          94.5870     9.7330     9.9760 c3         1 AFO      -0.088100
     19 H1          91.8900     9.8700     2.0460 h2         1 AFO       0.082700
     20 H2          93.7120     7.8980     1.4450 h1         1 AFO       0.083700
     21 HO2         92.2230     7.3940    -0.2960 ho         1 AFO       0.409000
     22 H3          94.0730     8.5620    -1.1970 h1         1 AFO       0.037700
     23 HO3         96.0840     9.4420    -0.4640 ho         1 AFO       0.408000
     24 H4          94.5330    11.2910    -0.5040 h1         1 AFO       0.067700
     25 H51         93.6030    10.4460    -2.6220 h1         1 AFO       0.022700
     26 H52         92.0800    10.0520    -1.8190 h1         1 AFO       0.022700
     27 HO5         92.0310    12.1640    -2.7810 ho         1 AFO       0.403000
     28 H9          93.5990    12.1970     2.7440 h1         1 AFO       0.028700
     29 H1'A        92.6830    11.1780     3.8570 h1         1 AFO       0.028700
     30 H10         94.8260    10.4580     4.9280 hc         1 AFO       0.052200
     31 H2'A        95.7270    11.4660     3.8050 hc         1 AFO       0.052200
     32 H11         94.3980    13.4710     4.6540 hc         1 AFO       0.038200
     33 H3'A        93.7070    12.4400     5.8800 hc         1 AFO       0.038200
     34 H12         96.6540    13.1440     5.5030 hc         1 AFO       0.037700
     35 H4'A        95.5980    13.7480     6.7570 hc         1 AFO       0.037700
     36 H5          96.5710    10.8670     6.4570 hc         1 AFO       0.037700
     37 H5'A        97.1230    12.0430     7.6190 hc         1 AFO       0.037700
     38 H6          94.8090    12.1260     8.6100 hc         1 AFO       0.037700
     39 H6'A        94.3000    10.8820     7.4890 hc         1 AFO       0.037700
     40 H7          96.0160     9.3270     8.4180 hc         1 AFO       0.036200
     41 H7'A        96.5260    10.5600     9.5470 hc         1 AFO       0.036200
     42 H8          94.9540     8.9480    10.6390 hc         1 AFO       0.030700
     43 H8'A        94.2500    10.5620    10.6010 hc         1 AFO       0.030700
     44 H8'B        93.7140     9.3410     9.4510 hc         1 AFO       0.030700
@<TRIPOS>BOND
     1     1     2 1   
     2     1     3 1   
     3     1     8 1   
     4     1    19 1   
     5     2    11 1   
     6     3     4 1   
     7     3     5 1   
     8     3    20 1   
     9     4    21 1   
    10     5     6 1   
    11     5     7 1   
    12     5    22 1   
    13     6    23 1   
    14     7     8 1   
    15     7     9 1   
    16     7    24 1   
    17     9    10 1   
    18     9    25 1   
    19     9    26 1   
    20    10    27 1   
    21    11    12 1   
    22    11    28 1   
    23    11    29 1   
    24    12    13 1   
    25    12    30 1   
    26    12    31 1   
    27    13    14 1   
    28    13    32 1   
    29    13    33 1   
    30    14    15 1   
    31    14    34 1   
    32    14    35 1   
    33    15    16 1   
    34    15    36 1   
    35    15    37 1   
    36    16    17 1   
    37    16    38 1   
    38    16    39 1   
    39    17    18 1   
    40    17    40 1   
    41    17    41 1   
    42    18    42 1   
    43    18    43 1   
    44    18    44 1   
@<TRIPOS>SUBSTRUCTURE
     1 AFO         1 TEMP              0 ****  ****    0 ROOT
