@<TRIPOS>MOLECULE
AFO
   44    44     1     0     0
SMALL
No Charge or Current Charge


@<TRIPOS>ATOM
      1 C1          93.4800    10.1210     1.2980 c5         1 AFO       0.386300
      2 O1          94.3900    10.3470     2.3990 os         1 AFO      -0.472000
      3 C2          93.9060     8.7900     0.5560 c5         1 AFO       0.145300
      4 O2          92.8020     7.8660     0.4170 oh         1 AFO      -0.707000
      5 C3          94.3980     9.3270    -0.8370 c5         1 AFO       0.106300
      6 O3          95.8120     9.6020    -0.8400 oh         1 AFO      -0.693000
      7 C4          93.5480    10.6350    -0.9770 c5         1 AFO       0.137300
      8 O4          93.6280    11.2030     0.3500 os         1 AFO      -0.450000
      9 C5          92.0600    10.4160    -1.4090 c3         1 AFO       0.158600
     10 O5          91.4210    11.6660    -1.7250 oh         1 AFO      -0.702000
     11 C9          94.1080    11.4760     3.2390 c3         1 AFO       0.167600
     12 C10         95.1690    11.5050     4.3550 c3         1 AFO      -0.081400
     13 C11         94.9720    12.6810     5.3400 c3         1 AFO      -0.073400
     14 C12         96.0700    12.8010     6.4280 c3         1 AFO      -0.069400
     15 C13         96.2260    11.5820     7.3720 c3         1 AFO      -0.074400
     16 C6          94.9610    11.2420     8.1960 c3         1 AFO      -0.076400
     17 C7          95.1840    10.0810     9.1890 c3         1 AFO      -0.076400
     18 C8          93.9240     9.7370    10.0070 c3         1 AFO      -0.088100
     19 H1          92.4430    10.0530     1.6540 h2         1 AFO       0.082700
     20 H2          94.7330     8.3050     1.0940 h1         1 AFO       0.083700
     21 HO2         93.1810     7.0020     0.1290 ho         1 AFO       0.508000
     22 H3          94.1630     8.6180    -1.6430 h1         1 AFO       0.037700
     23 HO3         96.0480     9.9340    -1.7380 ho         1 AFO       0.507000
     24 H4          94.0080    11.3290    -1.6940 h1         1 AFO       0.067700
     25 H51         92.0500     9.7630    -2.2920 h1         1 AFO       0.022700
     26 H52         91.5060     9.9020    -0.6140 h1         1 AFO       0.022700
     27 HO5         90.4880    11.4600    -1.9680 ho         1 AFO       0.502000
     28 H9          94.1530    12.4120     2.6660 h1         1 AFO       0.028700
     29 H1'A        93.1080    11.3870     3.6840 h1         1 AFO       0.028700
     30 H10         95.1260    10.5560     4.9020 hc         1 AFO       0.052200
     31 H2'A        96.1650    11.5760     3.9010 hc         1 AFO       0.052200
     32 H11         94.9550    13.6180     4.7690 hc         1 AFO       0.038200
     33 H3'A        93.9870    12.5980     5.8170 hc         1 AFO       0.038200
     34 H12         97.0330    12.9850     5.9350 hc         1 AFO       0.037700
     35 H4'A        95.8630    13.6910     7.0350 hc         1 AFO       0.037700
     36 H5          96.5320    10.7030     6.7930 hc         1 AFO       0.037700
     37 H5'A        97.0500    11.7920     8.0660 hc         1 AFO       0.037700
     38 H6          94.6410    12.1340     8.7490 hc         1 AFO       0.037700
     39 H6'A        94.1430    10.9720     7.5170 hc         1 AFO       0.037700
     40 H7          95.5060     9.1880     8.6380 hc         1 AFO       0.036200
     41 H7'A        95.9960    10.3420     9.8790 hc         1 AFO       0.036200
     42 H8          94.1310     8.9100    10.6970 hc         1 AFO       0.030700
     43 H8'A        93.5970    10.6020    10.5970 hc         1 AFO       0.030700
     44 H8'B        93.1020     9.4370     9.3470 hc         1 AFO       0.030700
@<TRIPOS>BOND
     1     1     2 1   
     2     1     3 1   
     3     1     8 1   
     4     1    19 1   
     5     2    11 1   
     6     3     4 1   
     7     3     5 1   
     8     3    20 1   
     9     4    21 1   
    10     5     6 1   
    11     5     7 1   
    12     5    22 1   
    13     6    23 1   
    14     7     8 1   
    15     7     9 1   
    16     7    24 1   
    17     9    10 1   
    18     9    25 1   
    19     9    26 1   
    20    10    27 1   
    21    11    12 1   
    22    11    28 1   
    23    11    29 1   
    24    12    13 1   
    25    12    30 1   
    26    12    31 1   
    27    13    14 1   
    28    13    32 1   
    29    13    33 1   
    30    14    15 1   
    31    14    34 1   
    32    14    35 1   
    33    15    16 1   
    34    15    36 1   
    35    15    37 1   
    36    16    17 1   
    37    16    38 1   
    38    16    39 1   
    39    17    18 1   
    40    17    40 1   
    41    17    41 1   
    42    18    42 1   
    43    18    43 1   
    44    18    44 1   
@<TRIPOS>SUBSTRUCTURE
     1 AFO         1 TEMP              0 ****  ****    0 ROOT
