@<TRIPOS>MOLECULE
AFQ
   51    54     1     0     0
SMALL
No Charge or Current Charge


@<TRIPOS>ATOM
      1 C2          -3.4710     2.8200     0.5090 c          1 AFQ       0.592600
      2 O16         -4.6100     3.0290     0.8960 o          1 AFQ      -0.554000
      3 N3          -2.5940     3.8190     0.3030 ns         1 AFQ      -0.453400
      4 C4          -1.3330     3.6250    -0.1130 cc         1 AFQ       0.704800
      5 N17         -0.6030     4.7160    -0.2650 nv         1 AFQ      -1.034200
      6 N5          -0.7450     2.4900    -0.3870 nd         1 AFQ      -0.698100
      7 C6          -1.5740     1.3600    -0.2140 ca         1 AFQ       0.219400
      8 C10         -1.0330     0.0680    -0.4880 ca         1 AFQ      -0.060300
      9 C18          0.4150    -0.1220    -0.9570 c3         1 AFQ      -0.011100
     10 C19          1.3980    -0.2150     0.2290 c3         1 AFQ       0.164800
     11 N20          2.7780    -0.4470    -0.2440 n7         1 AFQ      -0.864400
     12 C21          3.7980    -0.5190     0.8180 c3         1 AFQ       0.168800
     13 C22          5.2120    -0.7710     0.2410 c5         1 AFQ      -0.068700
     14 C26          6.3280    -0.8430     1.3120 c5         1 AFQ      -0.072400
     15 C25          7.6110    -0.9010     0.4360 c5         1 AFQ      -0.080400
     16 C24          7.2590    -0.0690    -0.8400 c5         1 AFQ      -0.080400
     17 C23          5.7840     0.3800    -0.6300 c5         1 AFQ      -0.072400
     18 C9          -1.8600    -1.0580    -0.3000 ca         1 AFQ       0.160400
     19 N11         -1.5430    -2.4000    -0.4900 nc         1 AFQ      -0.670100
     20 C12         -2.6860    -2.9930    -0.1640 cd         1 AFQ       0.685700
     21 N14         -2.7760    -4.3320    -0.2230 nu         1 AFQ      -0.911400
     22 C15         -3.9740    -5.1530     0.0050 c3         1 AFQ       0.217100
     23 N13         -3.7200    -2.1590     0.2220 na         1 AFQ      -0.357600
     24 C8          -3.1530    -0.9180     0.1240 ca         1 AFQ      -0.117200
     25 C7          -3.7260     0.3240     0.3970 ca         1 AFQ      -0.028000
     26 C1          -2.9210     1.4700     0.2250 ca         1 AFQ      -0.229600
     27 HN3         -2.9140     4.7520     0.5040 hn         1 AFQ       0.323500
     28 HN17        -1.0940     5.5600    -0.5290 hn         1 AFQ       0.487000
     29 HN1A         0.2740     4.5560    -0.7440 hn         1 AFQ       0.487000
     30 H18          0.5020    -1.0320    -1.5620 hc         1 AFQ       0.061200
     31 H18A         0.7240     0.6960    -1.6180 hc         1 AFQ       0.061200
     32 H19          1.3440     0.7190     0.8070 h1         1 AFQ       0.033200
     33 H19A         1.0790    -1.0330     0.8900 h1         1 AFQ       0.033200
     34 HN20         2.7940    -1.3350    -0.7590 hn         1 AFQ       0.402000
     35 H21          3.8120     0.4160     1.3950 h1         1 AFQ       0.027200
     36 H21A         3.5580    -1.3340     1.5140 h1         1 AFQ       0.027200
     37 H22          5.1640    -1.7080    -0.3280 hc         1 AFQ       0.042700
     38 H26          6.3260     0.0420     1.9610 hc         1 AFQ       0.043950
     39 H26A         6.2310    -1.7210     1.9620 hc         1 AFQ       0.043950
     40 H25          8.4820    -0.4980     0.9660 hc         1 AFQ       0.038200
     41 H25A         7.8550    -1.9360     0.1670 hc         1 AFQ       0.038200
     42 H24          7.9260     0.7900    -0.9710 hc         1 AFQ       0.038200
     43 H24A         7.3570    -0.6860    -1.7410 hc         1 AFQ       0.038200
     44 H23          5.2490     0.4960    -1.5790 hc         1 AFQ       0.043950
     45 H23A         5.7300     1.3440    -0.1090 hc         1 AFQ       0.043950
     46 HN14        -1.9260    -4.7710    -0.5710 hn         1 AFQ       0.522000
     47 H15         -4.7760    -4.8640    -0.6870 h1         1 AFQ       0.040033
     48 H15A        -3.7460    -6.2160    -0.1550 h1         1 AFQ       0.040033
     49 H15B        -4.3360    -5.0280     1.0340 h1         1 AFQ       0.040033
     50 HN13        -4.6490    -2.4300     0.5050 hn         1 AFQ       0.357000
     51 H7          -4.7580     0.3980     0.7350 ha         1 AFQ       0.135000
@<TRIPOS>BOND
     1     1     2 2   
     2     1     3 1   
     3     1    26 1   
     4     3     4 1   
     5     3    27 1   
     6     4     5 1   
     7     4     6 2   
     8     5    28 1   
     9     5    29 1   
    10     6     7 1   
    11     7     8 ar  
    12     7    26 ar  
    13     8     9 1   
    14     8    18 ar  
    15     9    10 1   
    16     9    30 1   
    17     9    31 1   
    18    10    11 1   
    19    10    32 1   
    20    10    33 1   
    21    11    12 1   
    22    11    34 1   
    23    12    13 1   
    24    12    35 1   
    25    12    36 1   
    26    13    14 1   
    27    13    17 1   
    28    13    37 1   
    29    14    15 1   
    30    14    38 1   
    31    14    39 1   
    32    15    16 1   
    33    15    40 1   
    34    15    41 1   
    35    16    17 1   
    36    16    42 1   
    37    16    43 1   
    38    17    44 1   
    39    17    45 1   
    40    18    19 1   
    41    18    24 ar  
    42    19    20 2   
    43    20    21 1   
    44    20    23 1   
    45    21    22 1   
    46    21    46 1   
    47    22    47 1   
    48    22    48 1   
    49    22    49 1   
    50    23    24 1   
    51    23    50 1   
    52    24    25 ar  
    53    25    26 ar  
    54    25    51 1   
@<TRIPOS>SUBSTRUCTURE
     1 AFQ         1 TEMP              0 ****  ****    0 ROOT
