@<TRIPOS>MOLECULE
AFQ
   51    54     1     0     0
SMALL
abcg2


@<TRIPOS>ATOM
      1 C2          -3.2280     2.7380     0.5560 c          1 AFQ       0.592600
      2 O16         -4.3410     3.0420     0.9600 o          1 AFQ      -0.554000
      3 N3          -2.2730     3.7110     0.3530 ns         1 AFQ      -0.453400
      4 C4          -1.0100     3.4520    -0.1060 cc         1 AFQ       0.704800
      5 N17         -0.1830     4.5180    -0.2040 nv         1 AFQ      -1.034200
      6 N5          -0.5940     2.2640    -0.3910 nd         1 AFQ      -0.698100
      7 C6          -1.4540     1.2080    -0.2180 ca         1 AFQ       0.219400
      8 C10         -0.9820    -0.0820    -0.5290 ca         1 AFQ      -0.060300
      9 C18          0.4180    -0.3110    -1.0110 c3         1 AFQ      -0.011100
     10 C19          1.4180    -0.3880     0.1390 c3         1 AFQ       0.164800
     11 N20          2.7710    -0.5510    -0.3570 n7         1 AFQ      -0.864400
     12 C21          3.7600    -0.6050     0.7010 c3         1 AFQ       0.168800
     13 C22          5.1660    -0.7710     0.1550 c5         1 AFQ      -0.068700
     14 C26          6.2320    -0.8340     1.2630 c5         1 AFQ      -0.072400
     15 C25          7.5240    -0.2430     0.6540 c5         1 AFQ      -0.080400
     16 C24          7.1590     0.1650    -0.7820 c5         1 AFQ      -0.080400
     17 C23          5.6470     0.3660    -0.7450 c5         1 AFQ      -0.072400
     18 C9          -1.8600    -1.1420    -0.3460 ca         1 AFQ       0.160400
     19 N11         -1.6520    -2.4750    -0.5680 nc         1 AFQ      -0.670100
     20 C12         -2.7940    -3.0580    -0.2560 cd         1 AFQ       0.685700
     21 N14         -3.0270    -4.3710    -0.3460 nu         1 AFQ      -0.911400
     22 C15         -4.2460    -5.0020     0.0960 c3         1 AFQ       0.217100
     23 N13         -3.7450    -2.1810     0.1650 na         1 AFQ      -0.357600
     24 C8          -3.1800    -0.9230     0.1220 ca         1 AFQ      -0.117200
     25 C7          -3.6610     0.3200     0.4250 ca         1 AFQ      -0.028000
     26 C1          -2.7770     1.3950     0.2510 ca         1 AFQ      -0.229600
     27 HN3         -2.5430     4.6630     0.5610 hn         1 AFQ       0.323500
     28 HN17        -0.5760     5.4410    -0.2890 hn         1 AFQ       0.487000
     29 HN1A         0.6630     4.3690    -0.7280 hn         1 AFQ       0.487000
     30 H18          0.4550    -1.2420    -1.5820 hc         1 AFQ       0.061200
     31 H18A         0.7200     0.4930    -1.6830 hc         1 AFQ       0.061200
     32 H19          1.3750     0.5420     0.7130 h1         1 AFQ       0.033200
     33 H19A         1.1180    -1.1930     0.8300 h1         1 AFQ       0.033200
     34 HN20         2.8220    -1.4090    -0.8960 hn         1 AFQ       0.402000
     35 H21          3.7110     0.3340     1.2660 h1         1 AFQ       0.027200
     36 H21A         3.5560    -1.4080     1.4290 h1         1 AFQ       0.027200
     37 H22          5.2080    -1.7030    -0.4250 hc         1 AFQ       0.042700
     38 H26          5.9080    -0.2340     2.1180 hc         1 AFQ       0.043950
     39 H26A         6.3700    -1.8510     1.6320 hc         1 AFQ       0.043950
     40 H25          7.8480     0.6280     1.2250 hc         1 AFQ       0.038200
     41 H25A         8.3510    -0.9530     0.6730 hc         1 AFQ       0.038200
     42 H24          7.7020     1.0480    -1.1220 hc         1 AFQ       0.038200
     43 H24A         7.3990    -0.6450    -1.4770 hc         1 AFQ       0.038200
     44 H23          5.1870     0.3570    -1.7340 hc         1 AFQ       0.043950
     45 H23A         5.4010     1.3280    -0.2810 hc         1 AFQ       0.043950
     46 HN14        -2.2380    -4.9480    -0.5850 hn         1 AFQ       0.522000
     47 H15         -5.1150    -4.6200    -0.4420 h1         1 AFQ       0.040033
     48 H15A        -4.1740    -6.0660    -0.1090 h1         1 AFQ       0.040033
     49 H15B        -4.4170    -4.8760     1.1680 h1         1 AFQ       0.040033
     50 HN13        -4.6810    -2.4020     0.4630 hn         1 AFQ       0.357000
     51 H7          -4.6690     0.4830     0.7820 ha         1 AFQ       0.135000
@<TRIPOS>BOND
     1     1     2 2   
     2     1     3 1   
     3     1    26 1   
     4     3     4 1   
     5     3    27 1   
     6     4     5 1   
     7     4     6 2   
     8     5    28 1   
     9     5    29 1   
    10     6     7 1   
    11     7     8 ar  
    12     7    26 ar  
    13     8     9 1   
    14     8    18 ar  
    15     9    10 1   
    16     9    30 1   
    17     9    31 1   
    18    10    11 1   
    19    10    32 1   
    20    10    33 1   
    21    11    12 1   
    22    11    34 1   
    23    12    13 1   
    24    12    35 1   
    25    12    36 1   
    26    13    14 1   
    27    13    17 1   
    28    13    37 1   
    29    14    15 1   
    30    14    38 1   
    31    14    39 1   
    32    15    16 1   
    33    15    40 1   
    34    15    41 1   
    35    16    17 1   
    36    16    42 1   
    37    16    43 1   
    38    17    44 1   
    39    17    45 1   
    40    18    19 1   
    41    18    24 ar  
    42    19    20 2   
    43    20    21 1   
    44    20    23 1   
    45    21    22 1   
    46    21    46 1   
    47    22    47 1   
    48    22    48 1   
    49    22    49 1   
    50    23    24 1   
    51    23    50 1   
    52    24    25 ar  
    53    25    26 ar  
    54    25    51 1   
@<TRIPOS>SUBSTRUCTURE
     1 AFQ         1 TEMP              0 ****  ****    0 ROOT
