@<TRIPOS>MOLECULE
AFR
   21    21     1     0     0
SMALL
abcg2


@<TRIPOS>ATOM
      1 F1           1.0110    -0.2330    -1.7140 f          1 AFR      -0.272000
      2 C5           1.0140    -0.2420    -0.3220 c6         1 AFR       0.424000
      3 C4           0.1350     0.9130     0.1580 c6         1 AFR       0.142300
      4 O4           0.6560     2.1090    -0.3520 oh         1 AFR      -0.703000
      5 C6           2.4690    -0.1260     0.1040 c3         1 AFR       0.158600
      6 O6           2.5210    -0.0740     1.5040 oh         1 AFR      -0.711000
      7 O5           0.5350    -1.4530     0.1190 os         1 AFR      -0.438000
      8 C1          -0.7940    -1.7980    -0.2260 c6         1 AFR       0.059600
      9 C2          -1.7770    -0.6900     0.0720 c          1 AFR       0.512100
     10 O2          -2.8820    -0.8980     0.5060 o          1 AFR      -0.498100
     11 C3          -1.3110     0.7020    -0.2920 c6         1 AFR       0.036300
     12 O3          -2.1010     1.6990     0.2760 oh         1 AFR      -0.646000
     13 H4           0.1560     0.9040     1.2550 h1         1 AFR       0.078700
     14 H61          3.0110    -0.9910    -0.2990 h1         1 AFR       0.053700
     15 H62          2.8890     0.7700    -0.3610 h1         1 AFR       0.053700
     16 HO4          0.4030     2.8260     0.2340 ho         1 AFR       0.525000
     17 H3          -1.3390     0.7410    -1.3950 h1         1 AFR       0.074700
     18 H6           3.3910     0.2410     1.7570 ho         1 AFR       0.512000
     19 H11         -0.8800    -2.0630    -1.2870 h1         1 AFR       0.085200
     20 H12         -1.0520    -2.6840     0.3530 h1         1 AFR       0.085200
     21 HO3         -3.0260     1.4690     0.1450 ho         1 AFR       0.468000
@<TRIPOS>BOND
     1     1     2 1   
     2     2     3 1   
     3     2     5 1   
     4     2     7 1   
     5     3     4 1   
     6     3    11 1   
     7     3    13 1   
     8     4    16 1   
     9     5     6 1   
    10     5    14 1   
    11     5    15 1   
    12     6    18 1   
    13     7     8 1   
    14     8     9 1   
    15     8    19 1   
    16     8    20 1   
    17     9    10 2   
    18     9    11 1   
    19    11    12 1   
    20    11    17 1   
    21    12    21 1   
@<TRIPOS>SUBSTRUCTURE
     1 AFR         1 TEMP              0 ****  ****    0 ROOT
