@<TRIPOS>MOLECULE
AFR
   21    21     1     0     0
SMALL
No Charge or Current Charge


@<TRIPOS>ATOM
      1 F1           1.1010    -0.3570    -1.7160 f          1 AFR      -0.272000
      2 C5           1.0680    -0.2550    -0.3060 c6         1 AFR       0.424000
      3 C4           0.1630     0.9660     0.1080 c6         1 AFR       0.142300
      4 O4           0.6050     2.2350    -0.4310 oh         1 AFR      -0.703000
      5 C6           2.5550    -0.1180     0.1890 c3         1 AFR       0.158600
      6 O6           2.7230    -0.1840     1.6290 oh         1 AFR      -0.711000
      7 O5           0.5220    -1.4970     0.2150 os         1 AFR      -0.438000
      8 C1          -0.8150    -1.8080    -0.2580 c6         1 AFR       0.059600
      9 C2          -1.8220    -0.6860     0.0720 c          1 AFR       0.512100
     10 O2          -2.9310    -0.9110     0.5460 o          1 AFR      -0.498100
     11 C3          -1.3350     0.7550    -0.2720 c6         1 AFR       0.036300
     12 O3          -2.1600     1.7870     0.3370 oh         1 AFR      -0.646000
     13 H4           0.2080     1.0100     1.2070 h1         1 AFR       0.078700
     14 H61          3.1320    -0.9210    -0.2900 h1         1 AFR       0.053700
     15 H62          2.9520     0.8310    -0.1960 h1         1 AFR       0.053700
     16 HO4         -0.1500     2.8550    -0.2780 ho         1 AFR       0.525000
     17 H3          -1.4120     0.8120    -1.3680 h1         1 AFR       0.074700
     18 H6           3.6920    -0.1500     1.8110 ho         1 AFR       0.512000
     19 H11         -0.8100    -1.9530    -1.3480 h1         1 AFR       0.085200
     20 H12         -1.1680    -2.7330     0.2190 h1         1 AFR       0.085200
     21 HO3         -3.0860     1.4450     0.3650 ho         1 AFR       0.468000
@<TRIPOS>BOND
     1     1     2 1   
     2     2     3 1   
     3     2     5 1   
     4     2     7 1   
     5     3     4 1   
     6     3    11 1   
     7     3    13 1   
     8     4    16 1   
     9     5     6 1   
    10     5    14 1   
    11     5    15 1   
    12     6    18 1   
    13     7     8 1   
    14     8     9 1   
    15     8    19 1   
    16     8    20 1   
    17     9    10 2   
    18     9    11 1   
    19    11    12 1   
    20    11    17 1   
    21    12    21 1   
@<TRIPOS>SUBSTRUCTURE
     1 AFR         1 TEMP              0 ****  ****    0 ROOT
