@<TRIPOS>MOLECULE
AFS
   23    22     1     0     0
SMALL
abcg2


@<TRIPOS>ATOM
      1 O1          -1.7790     0.9690    -1.3950 o          1 AFS      -0.661100
      2 N1          -4.1080     0.2610    -0.0010 n8         1 AFS      -0.977200
      3 CA1         -2.8080    -0.1770     0.4630 c3         1 AFS       0.065500
      4 C1          -1.6900     0.5960    -0.2290 c          1 AFS       0.588100
      5 CB1         -2.6100    -1.6530     0.1260 c3         1 AFS      -0.092100
      6 N2          -0.6070     0.7610     0.5360 ns         1 AFS      -0.422900
      7 CA2          0.7410     0.9970     0.0450 c3         1 AFS      -0.217300
      8 CB2          1.3050     2.2970     0.5970 c3         1 AFS      -0.046100
      9 P            1.7550    -0.5080     0.5300 p5         1 AFS       1.284500
     10 O21          3.1840    -0.1880     0.0820 o          1 AFS      -0.925167
     11 O22          1.5670    -0.5720     2.0550 o          1 AFS      -0.925167
     12 O23          1.1030    -1.6770    -0.2170 o          1 AFS      -0.925167
     13 H4          -2.6840    -0.0600     1.5510 h1         1 AFS       0.009700
     14 H5          -2.8000    -1.8230    -0.9340 hc         1 AFS       0.049033
     15 H6          -1.5880    -1.9700     0.3420 hc         1 AFS       0.049033
     16 H7          -3.2980    -2.2760     0.7010 hc         1 AFS       0.049033
     17 H8          -0.6250     0.3360     1.4530 hn         1 AFS       0.311500
     18 H9           0.6890     1.0650    -1.0440 h1         1 AFS       0.050700
     19 H10          0.7020     3.1630     0.3100 hc         1 AFS       0.002033
     20 H11          1.3520     2.2640     1.6880 hc         1 AFS       0.002033
     21 H12          2.3190     2.4530     0.2300 hc         1 AFS       0.002033
     22 H1          -4.8210    -0.2980     0.4520 hn         1 AFS       0.365500
     23 H2          -4.2800     1.2140     0.2930 hn         1 AFS       0.365500
@<TRIPOS>BOND
     1     1     4 2   
     2     2     3 1   
     3     2    22 1   
     4     2    23 1   
     5     3     4 1   
     6     3     5 1   
     7     3    13 1   
     8     4     6 1   
     9     5    14 1   
    10     5    15 1   
    11     5    16 1   
    12     6     7 1   
    13     6    17 1   
    14     7     8 1   
    15     7     9 1   
    16     7    18 1   
    17     8    19 1   
    18     8    20 1   
    19     8    21 1   
    20     9    10 1   
    21     9    11 1   
    22     9    12 1   
@<TRIPOS>SUBSTRUCTURE
     1 AFS         1 TEMP              0 ****  ****    0 ROOT
