@<TRIPOS>MOLECULE
AFS
   23    22     1     0     0
SMALL
No Charge or Current Charge


@<TRIPOS>ATOM
      1 O1          -1.5570     0.6430    -1.4600 o          1 AFS      -0.661100
      2 N1          -3.9540     0.5740     0.6580 n8         1 AFS      -0.977200
      3 CA1         -2.8250    -0.3790     0.4060 c3         1 AFS       0.065500
      4 C1          -1.5510     0.2280    -0.3030 c          1 AFS       0.588100
      5 CB1         -3.3460    -1.6190    -0.3520 c3         1 AFS      -0.092100
      6 N2          -0.4130     0.2560     0.4880 ns         1 AFS      -0.422900
      7 CA2          0.9240     0.7680     0.0800 c3         1 AFS      -0.217300
      8 CB2          0.9780     2.3090     0.1770 c3         1 AFS      -0.046100
      9 P            2.3410    -0.0730     0.9830 p5         1 AFS       1.284500
     10 O21          3.6400     0.4940     0.5180 o          1 AFS      -0.925167
     11 O22          2.1760     0.1470     2.4490 o          1 AFS      -0.925167
     12 O23          2.2920    -1.5340     0.6860 o          1 AFS      -0.925167
     13 H4          -2.4990    -0.7270     1.3960 h1         1 AFS       0.009700
     14 H5          -3.6990    -1.3460    -1.3540 hc         1 AFS       0.049033
     15 H6          -2.5470    -2.3620    -0.4630 hc         1 AFS       0.049033
     16 H7          -4.1740    -2.0910     0.1900 hc         1 AFS       0.049033
     17 H8          -0.5100    -0.1250     1.4230 hn         1 AFS       0.311500
     18 H9           1.0850     0.4890    -0.9680 h1         1 AFS       0.050700
     19 H10          0.1830     2.7660    -0.4240 hc         1 AFS       0.002033
     20 H11          0.8540     2.6390     1.2160 hc         1 AFS       0.002033
     21 H12          1.9370     2.6890    -0.1930 hc         1 AFS       0.002033
     22 H1          -4.6830     0.1000     1.2040 hn         1 AFS       0.365500
     23 H2          -3.6320     1.3280     1.2770 hn         1 AFS       0.365500
@<TRIPOS>BOND
     1     1     4 2   
     2     2     3 1   
     3     2    22 1   
     4     2    23 1   
     5     3     4 1   
     6     3     5 1   
     7     3    13 1   
     8     4     6 1   
     9     5    14 1   
    10     5    15 1   
    11     5    16 1   
    12     6     7 1   
    13     6    17 1   
    14     7     8 1   
    15     7     9 1   
    16     7    18 1   
    17     8    19 1   
    18     8    20 1   
    19     8    21 1   
    20     9    10 1   
    21     9    11 1   
    22     9    12 1   
@<TRIPOS>SUBSTRUCTURE
     1 AFS         1 TEMP              0 ****  ****    0 ROOT
