@<TRIPOS>MOLECULE
AFT
   35    39     1     0     0
SMALL
bcc


@<TRIPOS>ATOM
      1 C8A         -4.0640     1.8350     1.1500 c2         1 AFT       0.019100
      2 C9B         -1.5360     0.3150    -0.3830 ca         1 AFT      -0.256300
      3 O7          -4.7310     0.8870     0.4220 os         1 AFT      -0.308900
      4 C6A         -3.8780     0.4460    -0.5950 c5         1 AFT       0.303900
      5 O6A         -3.4540    -0.8910    -0.3070 os         1 AFT      -0.304900
      6 C5A         -2.1200    -0.9270    -0.2130 ca         1 AFT       0.240100
      7 C5B         -1.4040    -2.0920     0.0160 ca         1 AFT      -0.295000
      8 C4B         -0.0200    -1.9870     0.0810 ca         1 AFT       0.257100
      9 O4           0.7750    -3.0280     0.2950 os         1 AFT      -0.312900
     10 CM           0.2070    -4.3190     0.4620 c3         1 AFT       0.122700
     11 C4A          0.6310    -0.7320    -0.0830 ca         1 AFT      -0.241800
     12 C10         -0.1700     0.4080    -0.3130 ca         1 AFT       0.290100
     13 O10          0.3620     1.6360    -0.4700 os         1 AFT      -0.342200
     14 C11          1.7040     1.8990    -0.4390 c          1 AFT       0.779800
     15 O11          2.0410     3.0420    -0.5960 o          1 AFT      -0.528500
     16 C12          2.5370     0.7510    -0.2150 cc         1 AFT      -0.379400
     17 C3A          2.0340    -0.5090    -0.0380 cd         1 AFT       0.127600
     18 C3           3.1380    -1.4980     0.1860 c5         1 AFT      -0.047200
     19 C2A          4.4240    -0.6740     0.1190 c5         1 AFT      -0.192400
     20 C9A         -2.6110     1.3400    -0.5600 c5         1 AFT       0.009800
     21 C1           3.9950     0.7550    -0.1420 c          1 AFT       0.600300
     22 C9          -2.8770     2.1690     0.6670 c2         1 AFT      -0.258200
     23 O1           4.7340     1.7070    -0.2650 o          1 AFT      -0.493100
     24 H8A1        -4.5910     2.2040     2.0170 h4         1 AFT       0.184000
     25 H91C        -2.2010     2.8960     1.0850 ha         1 AFT       0.176000
     26 H9A         -2.4900     1.9380    -1.4660 hc         1 AFT       0.102700
     27 H6A         -4.4280     0.4210    -1.5350 h2         1 AFT       0.112700
     28 H5B         -1.9190    -3.0340     0.1360 ha         1 AFT       0.164000
     29 HM1C        -0.3460    -4.6300    -0.4260 h1         1 AFT       0.052367
     30 HM2C         1.0410    -4.9960     0.6180 h1         1 AFT       0.052367
     31 HM3C        -0.4520    -4.3560     1.3310 h1         1 AFT       0.052367
     32 H31C         3.0140    -1.9940     1.1500 hc         1 AFT       0.077200
     33 H32C         3.1070    -2.2820    -0.5710 hc         1 AFT       0.077200
     34 H2A1         4.9950    -0.7170     1.0480 hc         1 AFT       0.078700
     35 H2A2         5.0910    -1.0080    -0.6770 hc         1 AFT       0.078700
@<TRIPOS>BOND
     1     1     3 1   
     2     1    22 2   
     3     1    24 1   
     4     2     6 ar  
     5     2    12 ar  
     6     2    20 1   
     7     3     4 1   
     8     4     5 1   
     9     4    20 1   
    10     4    27 1   
    11     5     6 1   
    12     6     7 ar  
    13     7     8 ar  
    14     7    28 1   
    15     8     9 1   
    16     8    11 ar  
    17     9    10 1   
    18    10    29 1   
    19    10    30 1   
    20    10    31 1   
    21    11    12 ar  
    22    11    17 1   
    23    12    13 1   
    24    13    14 1   
    25    14    15 2   
    26    14    16 1   
    27    16    17 2   
    28    16    21 1   
    29    17    18 1   
    30    18    19 1   
    31    18    32 1   
    32    18    33 1   
    33    19    21 1   
    34    19    34 1   
    35    19    35 1   
    36    20    22 1   
    37    20    26 1   
    38    21    23 2   
    39    22    25 1   
@<TRIPOS>SUBSTRUCTURE
     1 AFT         1 TEMP              0 ****  ****    0 ROOT
