@<TRIPOS>MOLECULE
AFT
   35    39     1     0     0
SMALL
No Charge or Current Charge


@<TRIPOS>ATOM
      1 C8A         -3.9370     1.8780     1.2050 c2         1 AFT      -0.030900
      2 C9B         -1.6130     0.2700    -0.3860 ca         1 AFT      -0.256300
      3 O7          -4.6960     0.9020     0.6160 os         1 AFT      -0.332100
      4 C6A         -3.9510     0.4420    -0.5570 c5         1 AFT       0.350300
      5 O6A         -3.5680    -0.9560    -0.3220 os         1 AFT      -0.328100
      6 C5A         -2.2040    -0.9540    -0.2270 ca         1 AFT       0.240100
      7 C5B         -1.4490    -2.1040    -0.0000 ca         1 AFT      -0.277000
      8 C4B         -0.0420    -1.9960     0.0710 ca         1 AFT       0.257100
      9 O4           0.7500    -3.1040     0.2890 os         1 AFT      -0.336100
     10 CM           0.2070    -4.4250     0.4600 c3         1 AFT       0.145900
     11 C4A          0.5750    -0.7290    -0.0900 ca         1 AFT      -0.241800
     12 C10         -0.2240     0.4060    -0.3240 ca         1 AFT       0.290100
     13 O10          0.3380     1.6460    -0.5050 os         1 AFT      -0.342200
     14 C11          1.6820     1.8990    -0.4750 c          1 AFT       0.704300
     15 O11          2.1120     3.0300    -0.6390 o          1 AFT      -0.453000
     16 C12          2.5340     0.7370    -0.2080 cc         1 AFT      -0.379400
     17 C3A          2.0200    -0.5160    -0.0330 cd         1 AFT       0.127600
     18 C3           3.1940    -1.4850     0.0740 c5         1 AFT      -0.047200
     19 C2A          4.4460    -0.5830     0.3130 c5         1 AFT      -0.192400
     20 C9A         -2.6390     1.3290    -0.6210 c5         1 AFT       0.009800
     21 C1           3.9780     0.7860    -0.1540 c          1 AFT       0.600300
     22 C9          -2.7890     2.1790     0.6060 c2         1 AFT      -0.308200
     23 O1           4.6850     1.7090    -0.5310 o          1 AFT      -0.493100
     24 H8A1        -4.3310     2.3290     2.1210 h4         1 AFT       0.234000
     25 H91C        -2.0780     2.9310     0.9570 ha         1 AFT       0.226000
     26 H9A         -2.5310     1.8910    -1.5580 hc         1 AFT       0.102700
     27 H6A         -4.5580     0.5350    -1.4660 h2         1 AFT       0.112700
     28 H5B         -1.9630    -3.0520     0.1140 ha         1 AFT       0.146000
     29 HM1C        -0.3540    -4.7360    -0.4310 h1         1 AFT       0.052367
     30 HM2C         1.0150    -5.1500     0.6200 h1         1 AFT       0.052367
     31 HM3C        -0.4610    -4.4640     1.3300 h1         1 AFT       0.052367
     32 H31C         3.0740    -2.2050     0.8910 hc         1 AFT       0.077200
     33 H32C         3.2990    -2.0690    -0.8480 hc         1 AFT       0.077200
     34 H2A1         4.6470    -0.5050     1.3870 hc         1 AFT       0.078700
     35 H2A2         5.3710    -0.8890    -0.1890 hc         1 AFT       0.078700
@<TRIPOS>BOND
     1     1     3 1   
     2     1    22 2   
     3     1    24 1   
     4     2     6 ar  
     5     2    12 ar  
     6     2    20 1   
     7     3     4 1   
     8     4     5 1   
     9     4    20 1   
    10     4    27 1   
    11     5     6 1   
    12     6     7 ar  
    13     7     8 ar  
    14     7    28 1   
    15     8     9 1   
    16     8    11 ar  
    17     9    10 1   
    18    10    29 1   
    19    10    30 1   
    20    10    31 1   
    21    11    12 ar  
    22    11    17 1   
    23    12    13 1   
    24    13    14 1   
    25    14    15 2   
    26    14    16 1   
    27    16    17 2   
    28    16    21 1   
    29    17    18 1   
    30    18    19 1   
    31    18    32 1   
    32    18    33 1   
    33    19    21 1   
    34    19    34 1   
    35    19    35 1   
    36    20    22 1   
    37    20    26 1   
    38    21    23 2   
    39    22    25 1   
@<TRIPOS>SUBSTRUCTURE
     1 AFT         1 TEMP              0 ****  ****    0 ROOT
