@<TRIPOS>MOLECULE
AFU
   50    53     1     0     0
SMALL
No Charge or Current Charge


@<TRIPOS>ATOM
      1 CAA          7.3810    -0.7880     0.9540 ca         1 AFU       0.356900
      2 CAC          6.2720    -2.8050     0.7310 ca         1 AFU       0.356900
      3 CAD          5.0730    -2.1560     0.3970 ca         1 AFU      -0.207000
      4 CAE          5.0300    -0.7540     0.3400 ca         1 AFU       0.018000
      5 CAF          6.2240    -0.0630     0.6280 ca         1 AFU      -0.207000
      6 CAH          3.4320     1.2050    -0.1400 c          1 AFU       0.647700
      7 CAI          1.9870     1.4430    -0.4980 ca         1 AFU      -0.300600
      8 CAK          1.5400     2.7010    -0.9180 ca         1 AFU       0.667900
      9 CAM         -0.6270     2.0300    -1.1330 ca         1 AFU       0.432900
     10 CAN         -0.3300     0.7040    -0.7350 cp         1 AFU      -0.161000
     11 CAO          1.0160     0.4180    -0.4090 ca         1 AFU       0.004000
     12 CAQ         -1.3960    -0.3430    -0.6550 cp         1 AFU       0.013000
     13 CAR         -1.1160    -1.6960    -0.9630 ca         1 AFU      -0.145000
     14 CAS         -2.1180    -2.6770    -0.8940 ca         1 AFU      -0.075000
     15 CAT         -3.4210    -2.3220    -0.5120 ca         1 AFU      -0.174000
     16 CAU         -3.7340    -0.9860    -0.1960 ca         1 AFU       0.311000
     17 CAV         -2.7200    -0.0130    -0.2730 ca         1 AFU      -0.154000
     18 CAX         -6.2420    -1.3900    -0.2540 c6         1 AFU       0.201800
     19 CAY         -7.5650    -0.5520    -0.1910 c6         1 AFU       0.149300
     20 CBA         -6.5980     0.9060     1.5340 c6         1 AFU       0.149300
     21 CBB         -5.2590     0.0940     1.5010 c6         1 AFU       0.201800
     22 NAB          7.4150    -2.1390     1.0070 nb         1 AFU      -0.681000
     23 NAG          3.7990    -0.1280    -0.0010 ns         1 AFU      -0.142000
     24 NAL          0.2930     3.0140    -1.2230 nb         1 AFU      -0.765000
     25 NAP          2.2990     3.7780    -1.0860 nv         1 AFU      -1.054900
     26 NAW         -5.0420    -0.6090     0.1940 nh         1 AFU      -0.798400
     27 NAZ         -7.7850     0.0940     1.1360 n7         1 AFU      -0.860400
     28 OAJ          4.2130     2.1320     0.0430 o          1 AFU      -0.600100
     29 H1           8.3130    -0.2710     1.1790 h4         1 AFU       0.018600
     30 H2           6.3200    -3.8920     0.7800 h4         1 AFU       0.018600
     31 H3           4.1880    -2.7510     0.1860 ha         1 AFU       0.135500
     32 H4           6.2860     1.0190     0.6080 ha         1 AFU       0.135500
     33 H5          -1.6440     2.3120    -1.4040 h4         1 AFU       0.024100
     34 H6           1.2750    -0.5800    -0.0660 ha         1 AFU       0.119000
     35 H7          -0.1170    -1.9900    -1.2750 ha         1 AFU       0.108000
     36 H8          -1.8840    -3.7110    -1.1360 ha         1 AFU       0.110000
     37 H9          -4.1810    -3.0950    -0.4540 ha         1 AFU       0.114000
     38 H10         -2.9660     1.0150    -0.0310 ha         1 AFU       0.113000
     39 H12         -6.1050    -1.7380    -1.2890 h1         1 AFU       0.044950
     40 H13         -7.5210     0.2280    -0.9650 h1         1 AFU       0.039200
     41 H14         -8.4190    -1.2020    -0.4310 h1         1 AFU       0.039200
     42 H15         -6.7530     1.3130     2.5440 h1         1 AFU       0.039200
     43 H16         -6.5050     1.7620     0.8490 h1         1 AFU       0.039200
     44 H17         -4.4320     0.7860     1.7170 h1         1 AFU       0.044950
     45 H18         -5.2770    -0.6460     2.3160 h1         1 AFU       0.044950
     46 H19          3.0530    -0.7830    -0.1880 hn         1 AFU       0.158000
     47 H20          3.2010     3.7450    -0.6170 hn         1 AFU       0.503500
     48 H21          1.8000     4.6570    -1.0690 hn         1 AFU       0.503500
     49 H22         -8.6090     0.7060     1.0800 hn         1 AFU       0.415000
     50 H11         -6.3610    -2.2820     0.3780 h1         1 AFU       0.044950
@<TRIPOS>BOND
     1     1     5 ar  
     2     1    22 ar  
     3     1    29 1   
     4     2     3 ar  
     5     2    22 ar  
     6     2    30 1   
     7     3     4 ar  
     8     3    31 1   
     9     4     5 ar  
    10     4    23 1   
    11     5    32 1   
    12     6     7 1   
    13     6    23 1   
    14     6    28 2   
    15     7     8 ar  
    16     7    11 ar  
    17     8    24 ar  
    18     8    25 1   
    19     9    10 ar  
    20     9    24 ar  
    21     9    33 1   
    22    10    11 ar  
    23    10    12 1   
    24    11    34 1   
    25    12    13 ar  
    26    12    17 ar  
    27    13    14 ar  
    28    13    35 1   
    29    14    15 ar  
    30    14    36 1   
    31    15    16 ar  
    32    15    37 1   
    33    16    17 ar  
    34    16    26 1   
    35    17    38 1   
    36    18    19 1   
    37    18    26 1   
    38    18    39 1   
    39    18    50 1   
    40    19    27 1   
    41    19    40 1   
    42    19    41 1   
    43    20    21 1   
    44    20    27 1   
    45    20    42 1   
    46    20    43 1   
    47    21    26 1   
    48    21    44 1   
    49    21    45 1   
    50    23    46 1   
    51    25    47 1   
    52    25    48 1   
    53    27    49 1   
@<TRIPOS>SUBSTRUCTURE
     1 AFU         1 TEMP              0 ****  ****    0 ROOT
