@<TRIPOS>MOLECULE
AFU
   50    53     1     0     0
SMALL
abcg2


@<TRIPOS>ATOM
      1 CAA          7.0850    -0.9330     1.2760 ca         1 AFU       0.356900
      2 CAC          6.4480    -2.6280    -0.0750 ca         1 AFU       0.356900
      3 CAD          5.2560    -2.0040    -0.3840 ca         1 AFU      -0.207000
      4 CAE          4.9720    -0.7580     0.1820 ca         1 AFU       0.018000
      5 CAF          5.9250    -0.2110     1.0420 ca         1 AFU      -0.207000
      6 CAH          3.3400     1.1040     0.0900 c          1 AFU       0.647700
      7 CAI          1.9400     1.3800    -0.3120 ca         1 AFU      -0.300600
      8 CAK          1.5440     2.6710    -0.7510 ca         1 AFU       0.667900
      9 CAM         -0.6070     1.9350    -1.0790 ca         1 AFU       0.432900
     10 CAN         -0.3550     0.6500    -0.6010 cp         1 AFU      -0.161000
     11 CAO          0.9610     0.4000    -0.2280 ca         1 AFU       0.004000
     12 CAQ         -1.4110    -0.3720    -0.5020 cp         1 AFU       0.013000
     13 CAR         -1.1180    -1.7220    -0.7150 ca         1 AFU      -0.145000
     14 CAS         -2.1320    -2.6570    -0.6170 ca         1 AFU      -0.075000
     15 CAT         -3.4350    -2.2830    -0.3150 ca         1 AFU      -0.174000
     16 CAU         -3.7600    -0.9350    -0.1170 ca         1 AFU       0.311000
     17 CAV         -2.7180     0.0010    -0.2070 ca         1 AFU      -0.154000
     18 CAX         -6.1270    -1.4940     0.0880 c6         1 AFU       0.201800
     19 CAY         -7.4750    -0.8070    -0.0480 c6         1 AFU       0.149300
     20 CBA         -6.6360     1.1420     1.0130 c6         1 AFU       0.149300
     21 CBB         -5.2750     0.4910     1.1700 c6         1 AFU       0.201800
     22 NAB          7.3640    -2.1150     0.7410 nb         1 AFU      -0.681000
     23 NAG          3.7550    -0.1750    -0.1400 ns         1 AFU      -0.142000
     24 NAL          0.2880     2.9010    -1.1470 nb         1 AFU      -0.765000
     25 NAP          2.3960     3.7080    -0.8510 nv         1 AFU      -1.054900
     26 NAW         -5.0610    -0.5110     0.1320 nh         1 AFU      -0.798400
     27 NAZ         -7.6670     0.1260     1.0440 n7         1 AFU      -0.860400
     28 OAJ          4.0650     1.9580     0.5730 o          1 AFU      -0.600100
     29 H1           7.8300    -0.5170     1.9440 h4         1 AFU       0.018600
     30 H2           6.6720    -3.5940    -0.5130 h4         1 AFU       0.018600
     31 H3           4.5570    -2.4810    -1.0580 ha         1 AFU       0.135500
     32 H4           5.7900     0.7400     1.5280 ha         1 AFU       0.135500
     33 H5          -1.5990     2.1950    -1.4340 h4         1 AFU       0.024100
     34 H6           1.2160    -0.5740     0.1740 ha         1 AFU       0.119000
     35 H7          -0.1160    -2.0360    -0.9770 ha         1 AFU       0.108000
     36 H8          -1.9110    -3.7050    -0.7730 ha         1 AFU       0.110000
     37 H9          -4.1830    -3.0580    -0.2280 ha         1 AFU       0.114000
     38 H10         -2.9290     1.0500    -0.0470 ha         1 AFU       0.113000
     39 H12         -5.9900    -2.1430    -0.7770 h1         1 AFU       0.044950
     40 H13         -7.5190    -0.3220    -1.0360 h1         1 AFU       0.039200
     41 H14         -8.2590    -1.5660    -0.0220 h1         1 AFU       0.039200
     42 H15         -6.7860     1.8410     1.8380 h1         1 AFU       0.039200
     43 H16         -6.6400     1.7290     0.0810 h1         1 AFU       0.039200
     44 H17         -4.5160     1.2660     1.1150 h1         1 AFU       0.044950
     45 H18         -5.2040     0.0340     2.1670 h1         1 AFU       0.044950
     46 H19          3.1550    -0.7480    -0.7150 hn         1 AFU       0.158000
     47 H20          3.2640     3.6910    -0.3450 hn         1 AFU       0.503500
     48 H21          1.9970     4.6110    -1.0440 hn         1 AFU       0.503500
     49 H22         -8.5790     0.5570     0.9720 hn         1 AFU       0.415000
     50 H11         -6.1300    -2.1340     0.9840 h1         1 AFU       0.044950
@<TRIPOS>BOND
     1     1     5 ar  
     2     1    22 ar  
     3     1    29 1   
     4     2     3 ar  
     5     2    22 ar  
     6     2    30 1   
     7     3     4 ar  
     8     3    31 1   
     9     4     5 ar  
    10     4    23 1   
    11     5    32 1   
    12     6     7 1   
    13     6    23 1   
    14     6    28 2   
    15     7     8 ar  
    16     7    11 ar  
    17     8    24 ar  
    18     8    25 1   
    19     9    10 ar  
    20     9    24 ar  
    21     9    33 1   
    22    10    11 ar  
    23    10    12 1   
    24    11    34 1   
    25    12    13 ar  
    26    12    17 ar  
    27    13    14 ar  
    28    13    35 1   
    29    14    15 ar  
    30    14    36 1   
    31    15    16 ar  
    32    15    37 1   
    33    16    17 ar  
    34    16    26 1   
    35    17    38 1   
    36    18    19 1   
    37    18    26 1   
    38    18    39 1   
    39    18    50 1   
    40    19    27 1   
    41    19    40 1   
    42    19    41 1   
    43    20    21 1   
    44    20    27 1   
    45    20    42 1   
    46    20    43 1   
    47    21    26 1   
    48    21    44 1   
    49    21    45 1   
    50    23    46 1   
    51    25    47 1   
    52    25    48 1   
    53    27    49 1   
@<TRIPOS>SUBSTRUCTURE
     1 AFU         1 TEMP              0 ****  ****    0 ROOT
