@<TRIPOS>MOLECULE
AFV
   60    64     1     0     0
SMALL
abcg2


@<TRIPOS>ATOM
      1 C          -16.8880    27.4030    15.2670 ca         1 AFV       0.212000
      2 N          -20.8490    23.1280    18.2260 na         1 AFV      -0.074400
      3 C1         -17.7580    28.1570    14.5050 ca         1 AFV      -0.165000
      4 O1         -14.6820    26.3230    17.0310 o          1 AFV      -0.574100
      5 C2         -18.3300    29.2930    15.0660 ca         1 AFV      -0.072000
      6 O          -19.3020    28.3100    19.0030 os         1 AFV      -0.389100
      7 N1         -20.8810    22.6610    19.4950 nc         1 AFV      -0.508100
      8 N2         -19.1240    33.1330    18.8450 n7         1 AFV      -0.841400
      9 C3         -18.0240    29.6890    16.3670 ca         1 AFV      -0.103300
     10 N3         -16.1900    26.7080    18.6840 ns         1 AFV      -0.504900
     11 C4         -18.6970    30.8930    16.9830 c6         1 AFV      -0.009400
     12 N4         -15.5750    23.5290    20.4380 nb         1 AFV      -0.676000
     13 C5         -19.2150    30.6560    18.4180 c6         1 AFV      -0.106700
     14 C6         -20.1020    29.4210    18.5460 c3         1 AFV       0.175600
     15 C7         -19.7670    27.0420    18.7380 ca         1 AFV       0.056100
     16 C8         -19.9520    26.6190    17.3990 ca         1 AFV      -0.109000
     17 C9         -20.3250    25.3260    17.1000 ca         1 AFV      -0.113000
     18 C10        -20.5050    24.4450    18.1730 ca         1 AFV      -0.046200
     19 C11        -20.5600    23.6770    20.2770 cd         1 AFV       0.361800
     20 C12        -20.3080    24.8500    19.5130 ca         1 AFV      -0.214900
     21 C13        -19.9380    26.1750    19.7960 ca         1 AFV      -0.050000
     22 C14        -19.9430    31.9220    18.8970 c6         1 AFV       0.152800
     23 C15        -18.5460    33.3530    17.5160 c6         1 AFV       0.145800
     24 C16        -17.7990    32.1400    16.9590 c6         1 AFV      -0.107400
     25 C17        -17.1170    28.9210    17.0890 ca         1 AFV      -0.044000
     26 C18        -16.5550    27.7550    16.5710 ca         1 AFV      -0.184600
     27 C19        -15.7100    26.8670    17.4300 c          1 AFV       0.612700
     28 C20        -15.5990    25.8000    19.6400 c3         1 AFV       0.051700
     29 C21        -16.1000    24.3720    19.5410 ca         1 AFV       0.324300
     30 C22        -15.9700    22.2540    20.4150 ca         1 AFV       0.339900
     31 C23        -16.8960    21.7580    19.5060 ca         1 AFV      -0.164000
     32 C24        -17.4380    22.6370    18.5790 ca         1 AFV      -0.067000
     33 C25        -17.0370    23.9660    18.5970 ca         1 AFV      -0.145000
     34 F          -16.3980    26.2600    14.7320 f          1 AFV      -0.162000
     35 H2         -18.0060    27.8350    13.5020 ha         1 AFV       0.136000
     36 H3         -19.0410    29.8690    14.4860 ha         1 AFV       0.118000
     37 H4         -18.3680    33.0410    19.5180 hn         1 AFV       0.405000
     38 H6         -17.0880    27.1100    18.9070 hn         1 AFV       0.328500
     39 H7         -19.5760    31.1120    16.3650 hc         1 AFV       0.051700
     40 H8         -18.3620    30.5090    19.0870 hc         1 AFV       0.065700
     41 H9         -20.5740    29.1740    17.5930 h1         1 AFV       0.040700
     42 H10        -20.8960    29.5830    19.2840 h1         1 AFV       0.040700
     43 H11        -19.7750    27.3230    16.5990 ha         1 AFV       0.126000
     44 H12        -20.4550    25.0040    16.0760 ha         1 AFV       0.125000
     45 H13        -20.5170    23.5460    21.3480 h4         1 AFV       0.054800
     46 H14        -19.7750    26.5180    20.8100 ha         1 AFV       0.133000
     47 H15        -20.8320    32.0850    18.2770 h1         1 AFV       0.056700
     48 H16        -20.2860    31.7790    19.9240 h1         1 AFV       0.056700
     49 H17        -17.8820    34.2180    17.5670 h1         1 AFV       0.056200
     50 H18        -19.3630    33.6120    16.8340 h1         1 AFV       0.056200
     51 H19        -16.9020    31.9490    17.5570 hc         1 AFV       0.052200
     52 H20        -17.4710    32.3400    15.9350 hc         1 AFV       0.052200
     53 H21        -16.8610    29.2090    18.0980 ha         1 AFV       0.128000
     54 H22        -14.5180    25.8020    19.5020 h1         1 AFV       0.079200
     55 H23        -15.8020    26.1750    20.6440 h1         1 AFV       0.079200
     56 H24        -15.5250    21.5990    21.1570 h4         1 AFV       0.018100
     57 H25        -17.1840    20.7150    19.5310 ha         1 AFV       0.123000
     58 H26        -18.1710    22.3000    17.8590 ha         1 AFV       0.113000
     59 H27        -17.4540    24.6750    17.8970 ha         1 AFV       0.125000
     60 H1         -21.0520    22.5090    17.4590 hn         1 AFV       0.377000
@<TRIPOS>BOND
     1     1     3 ar  
     2     1    26 ar  
     3     1    34 1   
     4     2     7 1   
     5     2    18 1   
     6     2    60 1   
     7     3     5 ar  
     8     3    35 1   
     9     4    27 2   
    10     5     9 ar  
    11     5    36 1   
    12     6    14 1   
    13     6    15 1   
    14     7    19 2   
    15     8    22 1   
    16     8    23 1   
    17     8    37 1   
    18     9    11 1   
    19     9    25 ar  
    20    10    27 1   
    21    10    28 1   
    22    10    38 1   
    23    11    13 1   
    24    11    24 1   
    25    11    39 1   
    26    12    29 ar  
    27    12    30 ar  
    28    13    14 1   
    29    13    22 1   
    30    13    40 1   
    31    14    41 1   
    32    14    42 1   
    33    15    16 ar  
    34    15    21 ar  
    35    16    17 ar  
    36    16    43 1   
    37    17    18 ar  
    38    17    44 1   
    39    18    20 ar  
    40    19    20 1   
    41    19    45 1   
    42    20    21 ar  
    43    21    46 1   
    44    22    47 1   
    45    22    48 1   
    46    23    24 1   
    47    23    49 1   
    48    23    50 1   
    49    24    51 1   
    50    24    52 1   
    51    25    26 ar  
    52    25    53 1   
    53    26    27 1   
    54    28    29 1   
    55    28    54 1   
    56    28    55 1   
    57    29    33 ar  
    58    30    31 ar  
    59    30    56 1   
    60    31    32 ar  
    61    31    57 1   
    62    32    33 ar  
    63    32    58 1   
    64    33    59 1   
@<TRIPOS>SUBSTRUCTURE
     1 AFV         1 TEMP              0 ****  ****    0 ROOT
