@<TRIPOS>MOLECULE
AFV
   60    64     1     0     0
SMALL
No Charge or Current Charge


@<TRIPOS>ATOM
      1 C          -15.6110    28.0710    15.2810 ca         1 AFV       0.212000
      2 N          -20.7920    22.9440    19.7130 na         1 AFV      -0.074400
      3 C1         -16.1250    29.0740    14.4460 ca         1 AFV      -0.165000
      4 O1         -14.5110    26.2260    17.3110 o          1 AFV      -0.574100
      5 C2         -17.0570    30.0000    14.9370 ca         1 AFV      -0.072000
      6 O          -19.6520    28.3010    18.9980 os         1 AFV      -0.389100
      7 N1         -20.1600    22.7030    20.9470 nc         1 AFV      -0.508100
      8 N2         -19.7050    32.9320    18.6370 n7         1 AFV      -0.841400
      9 C3         -17.4690    29.9480    16.2810 ca         1 AFV      -0.103300
     10 N3         -16.2990    26.6250    18.6440 ns         1 AFV      -0.504900
     11 C4         -18.5290    30.9590    16.7730 c6         1 AFV      -0.009400
     12 N4         -16.2190    23.1160    19.9580 nb         1 AFV      -0.676000
     13 C5         -19.3340    30.5260    18.0450 c6         1 AFV      -0.106700
     14 C6         -20.0250    29.1330    17.8810 c3         1 AFV       0.175600
     15 C7         -19.9960    26.9670    19.0790 ca         1 AFV       0.056100
     16 C8         -20.7530    26.3080    18.0680 ca         1 AFV      -0.109000
     17 C9         -21.0740    24.9380    18.1950 ca         1 AFV      -0.113000
     18 C10        -20.6240    24.2630    19.3370 ca         1 AFV      -0.046200
     19 C11        -19.6160    23.8840    21.2930 cd         1 AFV       0.361800
     20 C12        -19.8990    24.8890    20.2970 ca         1 AFV      -0.214900
     21 C13        -19.5610    26.2470    20.2140 ca         1 AFV      -0.050000
     22 C14        -20.3660    31.6190    18.4300 c6         1 AFV       0.152800
     23 C15        -18.9570    33.3920    17.4420 c6         1 AFV       0.145800
     24 C16        -17.8920    32.3530    17.0180 c6         1 AFV      -0.107400
     25 C17        -16.9170    28.9590    17.1250 ca         1 AFV      -0.044000
     26 C18        -16.0130    27.9880    16.6330 ca         1 AFV      -0.184600
     27 C19        -15.5240    26.8730    17.5290 c          1 AFV       0.612700
     28 C20        -16.0630    25.5310    19.6050 c3         1 AFV       0.051700
     29 C21        -16.6010    24.1580    19.1790 ca         1 AFV       0.324300
     30 C22        -16.6750    21.8820    19.6430 ca         1 AFV       0.339900
     31 C23        -17.5170    21.6340    18.5460 ca         1 AFV      -0.164000
     32 C24        -17.9160    22.7070    17.7370 ca         1 AFV      -0.067000
     33 C25        -17.4520    23.9910    18.0630 ca         1 AFV      -0.145000
     34 F          -14.7570    27.1720    14.7430 f          1 AFV      -0.162000
     35 H2         -15.8140    29.1180    13.4050 ha         1 AFV       0.136000
     36 H3         -17.4640    30.7570    14.2690 ha         1 AFV       0.118000
     37 H4         -19.0400    32.8370    19.4150 hn         1 AFV       0.405000
     38 H6         -17.1420    27.1780    18.7440 hn         1 AFV       0.328500
     39 H7         -19.2600    31.0740    15.9590 hc         1 AFV       0.051700
     40 H8         -18.6350    30.4460    18.8880 hc         1 AFV       0.065700
     41 H9         -19.6990    28.6720    16.9400 h1         1 AFV       0.040700
     42 H10        -21.1150    29.2550    17.8320 h1         1 AFV       0.040700
     43 H11        -21.0990    26.8420    17.1870 ha         1 AFV       0.126000
     44 H12        -21.6530    24.4250    17.4300 ha         1 AFV       0.125000
     45 H13        -19.0600    23.9620    22.2190 h4         1 AFV       0.054800
     46 H14        -18.9830    26.7340    20.9960 ha         1 AFV       0.133000
     47 H15        -21.1240    31.7100    17.6360 h1         1 AFV       0.056700
     48 H16        -20.8890    31.3240    19.3520 h1         1 AFV       0.056700
     49 H17        -18.4690    34.3540    17.6570 h1         1 AFV       0.056200
     50 H18        -19.6590    33.5580    16.6100 h1         1 AFV       0.056200
     51 H19        -17.1160    32.2790    17.7910 hc         1 AFV       0.052200
     52 H20        -17.3890    32.7020    16.1060 hc         1 AFV       0.052200
     53 H21        -17.1940    28.9440    18.1730 ha         1 AFV       0.128000
     54 H22        -14.9840    25.4460    19.7870 h1         1 AFV       0.079200
     55 H23        -16.5320    25.8040    20.5590 h1         1 AFV       0.079200
     56 H24        -16.3520    21.0660    20.2890 h4         1 AFV       0.018100
     57 H25        -17.8540    20.6230    18.3370 ha         1 AFV       0.123000
     58 H26        -18.5750    22.5510    16.8850 ha         1 AFV       0.113000
     59 H27        -17.7600    24.8400    17.4620 ha         1 AFV       0.125000
     60 H1         -21.2970    22.2200    19.2030 hn         1 AFV       0.377000
@<TRIPOS>BOND
     1     1     3 ar  
     2     1    26 ar  
     3     1    34 1   
     4     2     7 1   
     5     2    18 1   
     6     2    60 1   
     7     3     5 ar  
     8     3    35 1   
     9     4    27 2   
    10     5     9 ar  
    11     5    36 1   
    12     6    14 1   
    13     6    15 1   
    14     7    19 2   
    15     8    22 1   
    16     8    23 1   
    17     8    37 1   
    18     9    11 1   
    19     9    25 ar  
    20    10    27 1   
    21    10    28 1   
    22    10    38 1   
    23    11    13 1   
    24    11    24 1   
    25    11    39 1   
    26    12    29 ar  
    27    12    30 ar  
    28    13    14 1   
    29    13    22 1   
    30    13    40 1   
    31    14    41 1   
    32    14    42 1   
    33    15    16 ar  
    34    15    21 ar  
    35    16    17 ar  
    36    16    43 1   
    37    17    18 ar  
    38    17    44 1   
    39    18    20 ar  
    40    19    20 1   
    41    19    45 1   
    42    20    21 ar  
    43    21    46 1   
    44    22    47 1   
    45    22    48 1   
    46    23    24 1   
    47    23    49 1   
    48    23    50 1   
    49    24    51 1   
    50    24    52 1   
    51    25    26 ar  
    52    25    53 1   
    53    26    27 1   
    54    28    29 1   
    55    28    54 1   
    56    28    55 1   
    57    29    33 ar  
    58    30    31 ar  
    59    30    56 1   
    60    31    32 ar  
    61    31    57 1   
    62    32    33 ar  
    63    32    58 1   
    64    33    59 1   
@<TRIPOS>SUBSTRUCTURE
     1 AFV         1 TEMP              0 ****  ****    0 ROOT
