@<TRIPOS>MOLECULE
AFW
   34    35     1     0     0
SMALL
No Charge or Current Charge


@<TRIPOS>ATOM
      1 C2           2.1230     2.0140     0.5480 ca         1 AFW      -0.217000
      2 C4           2.7000    -0.3160     0.0990 ca         1 AFW      -0.245300
      3 C5           1.3270    -0.6430     0.1130 ca         1 AFW      -0.010000
      4 C6           0.3380     0.3410     0.3420 cp         1 AFW      -0.082000
      5 C7          -1.1030    -0.0470     0.3510 cp         1 AFW      -0.020000
      6 F2           4.9520    -1.1040     0.3690 f          1 AFW      -0.116000
      7 C14          3.7470    -1.4020    -0.1690 c3         1 AFW       0.363300
      8 F            3.3830    -2.6000     0.3430 f          1 AFW      -0.116000
      9 F1           3.9390    -1.5810    -1.4950 f          1 AFW      -0.116000
     10 C3           3.0880     1.0230     0.3080 ca         1 AFW      -0.011000
     11 C1           0.7540     1.6770     0.5710 ca         1 AFW       0.196100
     12 O           -0.2340     2.6090     0.8300 os         1 AFW      -0.322100
     13 C            0.0590     4.0010     1.0400 c3         1 AFW       0.145900
     14 C13         -2.0090     0.3960    -0.6480 ca         1 AFW       0.140000
     15 Cl          -1.4730     1.4070    -1.9920 cl         1 AFW      -0.201000
     16 C12         -3.3600     0.0100    -0.6100 ca         1 AFW      -0.082000
     17 C10         -3.8380    -0.8270     0.4170 ca         1 AFW      -0.074300
     18 C11         -5.3050    -1.2360     0.4530 c3         1 AFW       0.196100
     19 N           -5.5860    -2.3210    -0.5060 n8         1 AFW      -0.998200
     20 C9          -2.9450    -1.2810     1.4060 ca         1 AFW      -0.111000
     21 C8          -1.5940    -0.8970     1.3700 ca         1 AFW      -0.093000
     22 H1           2.4560     3.0330     0.7170 ha         1 AFW       0.125000
     23 H2           1.0110    -1.6690    -0.0630 ha         1 AFW       0.133000
     24 H3           4.1400     1.3040     0.2870 ha         1 AFW       0.129000
     25 H4          -0.8680     4.5610     1.2160 h1         1 AFW       0.045700
     26 H5           0.7090     4.1360     1.9130 h1         1 AFW       0.045700
     27 H6           0.5540     4.4310     0.1600 h1         1 AFW       0.045700
     28 H7          -4.0380     0.3550    -1.3860 ha         1 AFW       0.145000
     29 H8          -5.5740    -1.5750     1.4630 h1         1 AFW       0.036700
     30 H9          -5.9360    -0.3710     0.2050 h1         1 AFW       0.036700
     31 H10         -5.0400    -3.1470    -0.2340 hn         1 AFW       0.398500
     32 H11         -6.5600    -2.6240    -0.3880 hn         1 AFW       0.398500
     33 H13         -3.2970    -1.9310     2.2040 ha         1 AFW       0.114000
     34 H14         -0.9160    -1.2540     2.1420 ha         1 AFW       0.119000
@<TRIPOS>BOND
     1     1    10 ar  
     2     1    11 ar  
     3     1    22 1   
     4     2     3 ar  
     5     2     7 1   
     6     2    10 ar  
     7     3     4 ar  
     8     3    23 1   
     9     4     5 1   
    10     4    11 ar  
    11     5    14 ar  
    12     5    21 ar  
    13     6     7 1   
    14     7     8 1   
    15     7     9 1   
    16    10    24 1   
    17    11    12 1   
    18    12    13 1   
    19    13    25 1   
    20    13    26 1   
    21    13    27 1   
    22    14    15 1   
    23    14    16 ar  
    24    16    17 ar  
    25    16    28 1   
    26    17    18 1   
    27    17    20 ar  
    28    18    19 1   
    29    18    29 1   
    30    18    30 1   
    31    19    31 1   
    32    19    32 1   
    33    20    21 ar  
    34    20    33 1   
    35    21    34 1   
@<TRIPOS>SUBSTRUCTURE
     1 AFW         1 TEMP              0 ****  ****    0 ROOT
