@<TRIPOS>MOLECULE
AFW
   34    35     1     0     0
SMALL
bcc


@<TRIPOS>ATOM
      1 C2           2.0690     2.0140     0.5440 ca         1 AFW      -0.235000
      2 C4           2.6890    -0.2790     0.1620 ca         1 AFW      -0.245300
      3 C5           1.3420    -0.6330     0.1740 ca         1 AFW      -0.028000
      4 C6           0.3550     0.3170     0.3570 cp         1 AFW      -0.082000
      5 C7          -1.0670    -0.0880     0.4040 cp         1 AFW      -0.020000
      6 F2           4.9550    -0.9220     0.1610 f          1 AFW      -0.237300
      7 C14          3.7120    -1.3270    -0.1190 c3         1 AFW       0.727200
      8 F            3.4960    -2.4460     0.5890 f          1 AFW      -0.237300
      9 F1           3.7080    -1.6960    -1.4110 f          1 AFW      -0.237300
     10 C3           3.0440     1.0460     0.3510 ca         1 AFW      -0.029000
     11 C1           0.7230     1.6590     0.5560 ca         1 AFW       0.196100
     12 O           -0.2800     2.5170     0.7570 os         1 AFW      -0.298900
     13 C            0.0120     3.8970     0.8840 c3         1 AFW       0.122700
     14 C13         -1.9870     0.2880    -0.5750 ca         1 AFW       0.048400
     15 CL          -1.4630     1.2590    -1.9130 cl         1 AFW      -0.109400
     16 C12         -3.3070    -0.1200    -0.5330 ca         1 AFW      -0.100000
     17 C10         -3.7580    -0.9250     0.5110 ca         1 AFW      -0.074300
     18 C11         -5.2050    -1.3440     0.5720 c3         1 AFW       0.196100
     19 N           -5.6750    -1.8290    -0.7140 n8         1 AFW      -0.887800
     20 C9          -2.8530    -1.3130     1.4900 ca         1 AFW      -0.129000
     21 C8          -1.5310    -0.8980     1.4350 ca         1 AFW      -0.111000
     22 H1           2.3830     3.0370     0.7010 ha         1 AFW       0.143000
     23 H2           1.0410    -1.6630     0.0290 ha         1 AFW       0.151000
     24 H3           4.0800     1.3530     0.3520 ha         1 AFW       0.147000
     25 H4          -0.9410     4.4030     1.0110 h1         1 AFW       0.045700
     26 H5           0.6390     4.1010     1.7550 h1         1 AFW       0.045700
     27 H6           0.5050     4.2860    -0.0100 h1         1 AFW       0.045700
     28 H7          -3.9920     0.1750    -1.3170 ha         1 AFW       0.163000
     29 H8          -5.3270    -2.0590     1.3950 h1         1 AFW       0.036700
     30 H9          -5.8060    -0.4700     0.8400 h1         1 AFW       0.036700
     31 H10         -5.2670    -2.7360    -0.9040 hn         1 AFW       0.343300
     32 H11         -6.6750    -1.9750    -0.6720 hn         1 AFW       0.343300
     33 H13         -3.1790    -1.9450     2.3070 ha         1 AFW       0.132000
     34 H14         -0.8380    -1.2130     2.2050 ha         1 AFW       0.137000
@<TRIPOS>BOND
     1     1    10 ar  
     2     1    11 ar  
     3     1    22 1   
     4     2     3 ar  
     5     2     7 1   
     6     2    10 ar  
     7     3     4 ar  
     8     3    23 1   
     9     4     5 1   
    10     4    11 ar  
    11     5    14 ar  
    12     5    21 ar  
    13     6     7 1   
    14     7     8 1   
    15     7     9 1   
    16    10    24 1   
    17    11    12 1   
    18    12    13 1   
    19    13    25 1   
    20    13    26 1   
    21    13    27 1   
    22    14    15 1   
    23    14    16 ar  
    24    16    17 ar  
    25    16    28 1   
    26    17    18 1   
    27    17    20 ar  
    28    18    19 1   
    29    18    29 1   
    30    18    30 1   
    31    19    31 1   
    32    19    32 1   
    33    20    21 ar  
    34    20    33 1   
    35    21    34 1   
@<TRIPOS>SUBSTRUCTURE
     1 AFW         1 TEMP              0 ****  ****    0 ROOT
