@<TRIPOS>MOLECULE
AFX
   30    32     1     0     0
SMALL
No Charge or Current Charge


@<TRIPOS>ATOM
      1 C1          -4.2020    -1.2250    -0.2650 c3         1 AFX       0.231800
      2 F1          -1.3100    -2.1410     0.2860 f          1 AFX      -0.113500
      3 N1           4.5400     0.2810     0.7440 nb         1 AFX      -0.300000
      4 O1          -4.7860    -1.7120     0.9440 oh         1 AFX      -0.653000
      5 C2           3.5890     0.5910     1.6570 ca         1 AFX       0.188900
      6 N3           2.2480     0.5500     1.4740 nb         1 AFX      -0.218000
      7 C4           1.8310     0.1600     0.2520 ca         1 AFX       0.140500
      8 C5           2.7130    -0.1770    -0.7440 ca         1 AFX      -0.102600
      9 C6           4.0930    -0.1010    -0.4620 ca         1 AFX       0.453900
     10 N6           5.0460    -0.4160    -1.3790 nv         1 AFX      -1.059900
     11 N7           2.0720    -0.5580    -1.9170 nc         1 AFX      -0.540100
     12 C8           0.7760    -0.4320    -1.5790 cd         1 AFX       0.402700
     13 N9           0.5670     0.0070    -0.2560 na         1 AFX      -0.283300
     14 C7          -0.7230     0.2460     0.4110 c5         1 AFX       0.092500
     15 C9          -1.5180     1.4830    -0.1440 c5         1 AFX       0.065300
     16 O2          -1.2030     2.7060     0.5590 oh         1 AFX      -0.621000
     17 C3          -3.0150     1.0710     0.0290 c          1 AFX       0.543300
     18 O3          -4.0140     1.7790     0.0480 o          1 AFX      -0.494100
     19 C10         -2.9780    -0.4030     0.0550 ce         1 AFX      -0.261400
     20 C11         -1.7420    -0.8730     0.2600 c2         1 AFX       0.185300
     21 H1          -3.9110    -2.0630    -0.9140 h1         1 AFX       0.040700
     22 H1A         -4.9240    -0.6120    -0.8230 h1         1 AFX       0.040700
     23 HO1         -5.5730    -2.2410     0.6840 ho         1 AFX       0.454000
     24 HN6          5.9810    -0.6280    -1.0410 hn         1 AFX       0.507500
     25 HN6A         4.7380    -0.9130    -2.2120 hn         1 AFX       0.507500
     26 H8          -0.0630    -0.6390    -2.2340 h5         1 AFX       0.068800
     27 H3          -0.5410     0.3910     1.4850 h1         1 AFX       0.143700
     28 H2          -1.3470     1.5960    -1.2230 h1         1 AFX       0.064700
     29 HO2         -1.8300     3.3990     0.2450 ho         1 AFX       0.467000
     30 H4           3.9380     0.9040     2.6400 h5         1 AFX       0.049100
@<TRIPOS>BOND
     1     1     4 1   
     2     1    19 1   
     3     1    21 1   
     4     1    22 1   
     5     2    20 1   
     6     3     5 ar  
     7     3     9 ar  
     8     4    23 1   
     9     5     6 ar  
    10     5    30 1   
    11     6     7 ar  
    12     7     8 ar  
    13     7    13 1   
    14     8     9 ar  
    15     8    11 1   
    16     9    10 1   
    17    10    24 1   
    18    10    25 1   
    19    11    12 2   
    20    12    13 1   
    21    12    26 1   
    22    13    14 1   
    23    14    15 1   
    24    14    20 1   
    25    14    27 1   
    26    15    16 1   
    27    15    17 1   
    28    15    28 1   
    29    16    29 1   
    30    17    18 2   
    31    17    19 1   
    32    19    20 2   
@<TRIPOS>SUBSTRUCTURE
     1 AFX         1 TEMP              0 ****  ****    0 ROOT
