@<TRIPOS>MOLECULE
AFX
   30    32     1     0     0
SMALL
abcg2


@<TRIPOS>ATOM
      1 C1          -4.2360    -1.1450    -0.0260 c3         1 AFX       0.231800
      2 F1          -1.2730    -1.9320     0.5730 f          1 AFX      -0.113500
      3 N1           4.3460     0.2030     0.8610 nb         1 AFX      -0.300000
      4 O1          -3.9960    -2.4770     0.3370 oh         1 AFX      -0.653000
      5 C2           3.3850     0.6000     1.6920 ca         1 AFX       0.188900
      6 N3           2.0800     0.6240     1.4860 nb         1 AFX      -0.218000
      7 C4           1.7680     0.1800     0.2730 ca         1 AFX       0.140500
      8 C5           2.6490    -0.2640    -0.6990 ca         1 AFX      -0.102600
      9 C6           4.0140    -0.2410    -0.3570 ca         1 AFX       0.453900
     10 N6           4.9750    -0.6300    -1.1950 nv         1 AFX      -1.059900
     11 N7           1.9750    -0.6510    -1.8290 nc         1 AFX      -0.540100
     12 C8           0.7250    -0.4450    -1.5470 cd         1 AFX       0.402700
     13 N9           0.5290     0.0600    -0.2890 na         1 AFX      -0.283300
     14 C7          -0.7230     0.3980     0.3380 c5         1 AFX       0.092500
     15 C9          -1.4980     1.5450    -0.3190 c5         1 AFX       0.065300
     16 O2          -1.2330     2.7600     0.3010 oh         1 AFX      -0.621000
     17 C3          -2.9500     1.0830    -0.2110 c          1 AFX       0.543300
     18 O3          -3.9110     1.8090    -0.3050 o          1 AFX      -0.494100
     19 C10         -2.9710    -0.3650     0.0160 ce         1 AFX      -0.261400
     20 C11         -1.7170    -0.7230     0.2980 c2         1 AFX       0.185300
     21 H1          -4.6570    -1.0590    -1.0380 h1         1 AFX       0.040700
     22 H1A         -4.9550    -0.6540     0.6440 h1         1 AFX       0.040700
     23 HO1         -4.8420    -2.9330     0.3570 ho         1 AFX       0.454000
     24 HN6          5.9310    -0.6610    -0.8860 hn         1 AFX       0.507500
     25 HN6A         4.7510    -1.0430    -2.0830 hn         1 AFX       0.507500
     26 H8          -0.1020    -0.6420    -2.2150 h5         1 AFX       0.068800
     27 H3          -0.5000     0.6550     1.3780 h1         1 AFX       0.143700
     28 H2          -1.2540     1.5630    -1.3910 h1         1 AFX       0.064700
     29 HO2         -1.5800     3.4710    -0.2480 ho         1 AFX       0.467000
     30 H4           3.7230     0.9460     2.6620 h5         1 AFX       0.049100
@<TRIPOS>BOND
     1     1     4 1   
     2     1    19 1   
     3     1    21 1   
     4     1    22 1   
     5     2    20 1   
     6     3     5 ar  
     7     3     9 ar  
     8     4    23 1   
     9     5     6 ar  
    10     5    30 1   
    11     6     7 ar  
    12     7     8 ar  
    13     7    13 1   
    14     8     9 ar  
    15     8    11 1   
    16     9    10 1   
    17    10    24 1   
    18    10    25 1   
    19    11    12 2   
    20    12    13 1   
    21    12    26 1   
    22    13    14 1   
    23    14    15 1   
    24    14    20 1   
    25    14    27 1   
    26    15    16 1   
    27    15    17 1   
    28    15    28 1   
    29    16    29 1   
    30    17    18 2   
    31    17    19 1   
    32    19    20 2   
@<TRIPOS>SUBSTRUCTURE
     1 AFX         1 TEMP              0 ****  ****    0 ROOT
