@<TRIPOS>MOLECULE
AFX
   30    32     1     0     0
SMALL
bcc


@<TRIPOS>ATOM
      1 H1          -4.2360    -1.1450    -0.0260 c3         1 AFX       0.054000
      2 H1          -1.2730    -1.9320     0.5730 f          1 AFX      -0.051000
      3 H1           4.3460     0.2030     0.8610 nb         1 AFX      -0.300000
      4 H1          -3.9960    -2.4770     0.3370 oh         1 AFX      -0.318000
      5 H2           3.3850     0.6000     1.6920 ca         1 AFX       0.052000
      6 H3           2.0800     0.6240     1.4860 nb         1 AFX      -0.218000
      7 H4           1.7680     0.1800     0.2730 ca         1 AFX       0.077000
      8 H5           2.6490    -0.2640    -0.6990 ca         1 AFX      -0.242000
      9 H6           4.0140    -0.2410    -0.3570 ca         1 AFX       0.261000
     10 H6           4.9750    -0.6300    -1.1950 nv         1 AFX      -0.347000
     11 H7           1.9750    -0.6510    -1.8290 n2         1 AFX      -0.113000
     12 H8           0.7250    -0.4450    -1.5470 cc         1 AFX      -0.053000
     13 H9           0.5290     0.0600    -0.2890 na         1 AFX      -0.171000
     14 H7          -0.7230     0.3980     0.3380 c5         1 AFX       0.039000
     15 H9          -1.4980     1.5450    -0.3190 c5         1 AFX      -0.019000
     16 H2          -1.2330     2.7600     0.3010 oh         1 AFX      -0.286000
     17 H3          -2.9500     1.0830    -0.2110 c          1 AFX       0.235000
     18 H3          -3.9110     1.8090    -0.3050 o          1 AFX      -0.255000
     19 H10         -2.9710    -0.3650     0.0160 c2         1 AFX      -0.238000
     20 H11         -1.7170    -0.7230     0.2980 c2         1 AFX       0.127000
     21 H1          -4.6570    -1.0590    -1.0380 ha         1 AFX       0.080000
     22 H1A         -4.9550    -0.6540     0.6440 ha         1 AFX       0.080000
     23 HO1         -4.8420    -2.9330     0.3570 ha         1 AFX       0.214000
     24 HN6          5.9310    -0.6610    -0.8860 ha         1 AFX       0.247500
     25 HN6A         4.7510    -1.0430    -2.0830 ha         1 AFX       0.247500
     26 H8          -0.1020    -0.6420    -2.2150 ha         1 AFX       0.198000
     27 H3          -0.5000     0.6550     1.3780 ha         1 AFX       0.183000
     28 H2          -1.2540     1.5630    -1.3910 ha         1 AFX       0.104000
     29 HO2         -1.5800     3.4710    -0.2480 ha         1 AFX       0.227000
     30 H4           3.7230     0.9460     2.6620 ha         1 AFX       0.186000
@<TRIPOS>BOND
     1     1     4 1   
     2     1    19 1   
     3     1    21 1   
     4     1    22 1   
     5     2    20 1   
     6     3     5 ar  
     7     3     9 ar  
     8     4    23 1   
     9     5     6 ar  
    10     5    30 1   
    11     6     7 ar  
    12     7     8 ar  
    13     7    13 1   
    14     8     9 ar  
    15     8    11 1   
    16     9    10 1   
    17    10    24 1   
    18    10    25 1   
    19    11    12 2   
    20    12    13 1   
    21    12    26 1   
    22    13    14 1   
    23    14    15 1   
    24    14    20 1   
    25    14    27 1   
    26    15    16 1   
    27    15    17 1   
    28    15    28 1   
    29    16    29 1   
    30    17    18 2   
    31    17    19 1   
    32    19    20 2   
@<TRIPOS>SUBSTRUCTURE
     1 AFX         1 TEMP              0 ****  ****    0 ROOT
