@<TRIPOS>MOLECULE
AFZ
   39    41     1     0     0
SMALL
No Charge or Current Charge


@<TRIPOS>ATOM
      1 N1          -7.0540     2.0070     0.1800 nv         1 AFZ      -1.074200
      2 C2          -6.7170     0.7430    -0.1590 ce         1 AFZ       0.658800
      3 N3          -7.6500    -0.0820    -0.4040 n2         1 AFZ      -0.824100
      4 C4          -5.2660     0.3590    -0.1130 ca         1 AFZ      -0.137900
      5 C7          -4.8890    -0.9980    -0.0070 ca         1 AFZ      -0.079500
      6 C8          -3.5350    -1.3730     0.0060 ca         1 AFZ      -0.100500
      7 C5          -4.2420     1.3260    -0.2450 ca         1 AFZ      -0.079500
      8 C6          -2.8870     0.9490    -0.2330 ca         1 AFZ      -0.100500
      9 C9          -2.5150    -0.4050    -0.1000 ca         1 AFZ      -0.107500
     10 C10         -1.1070    -0.8220    -0.0850 cc         1 AFZ       0.183500
     11 C13         -0.0170    -0.0000    -0.0190 cd         1 AFZ      -0.158000
     12 O11         -0.7260    -2.1380    -0.1200 os         1 AFZ      -0.230000
     13 C12          0.6510    -2.1330    -0.0830 cc         1 AFZ       0.150900
     14 C14          1.1260    -0.8400    -0.0190 cd         1 AFZ      -0.115000
     15 C15          2.5430    -0.4280     0.0400 ca         1 AFZ       0.017000
     16 C16          2.8990     0.9330     0.1060 ca         1 AFZ      -0.114500
     17 C17          4.2480     1.3260     0.1610 ca         1 AFZ      -0.075500
     18 C20          5.2840     0.3640     0.1370 ca         1 AFZ      -0.146900
     19 C21          6.7280     0.7640     0.2280 ce         1 AFZ       0.660800
     20 N22          7.0710     2.0090    -0.1690 nv         1 AFZ      -1.075200
     21 N23          7.6530    -0.0350     0.5660 n2         1 AFZ      -0.827100
     22 C19          4.9230    -1.0010     0.0930 ca         1 AFZ      -0.075500
     23 C18          3.5730    -1.3900     0.0380 ca         1 AFZ      -0.114500
     24 H24         -6.3280     2.5270     0.6600 hn         1 AFZ       0.460500
     25 H25         -7.9890     2.1380     0.5500 hn         1 AFZ       0.460500
     26 H27         -8.5080     0.4530    -0.5770 hn         1 AFZ       0.371400
     27 H30         -5.6490    -1.7720     0.0750 ha         1 AFZ       0.129000
     28 H31         -3.2820    -2.4270     0.1000 ha         1 AFZ       0.122000
     29 H28         -4.4860     2.3790    -0.3730 ha         1 AFZ       0.129000
     30 H29         -2.1340     1.7250    -0.3390 ha         1 AFZ       0.122000
     31 H33         -0.0290     1.0820     0.0300 ha         1 AFZ       0.142000
     32 H32          1.1510    -3.0910    -0.1050 h4         1 AFZ       0.057100
     33 H34          2.1330     1.7030     0.1230 ha         1 AFZ       0.113500
     34 H35          4.4770     2.3870     0.2350 ha         1 AFZ       0.127000
     35 H39          6.3640     2.4910    -0.7120 hn         1 AFZ       0.460000
     36 H38          8.0210     2.1260    -0.5020 hn         1 AFZ       0.460000
     37 H41          8.4990     0.5170     0.7450 hn         1 AFZ       0.370400
     38 H37          5.6910    -1.7710     0.0930 ha         1 AFZ       0.127000
     39 H36          3.3390    -2.4500    -0.0040 ha         1 AFZ       0.113500
@<TRIPOS>BOND
     1     1     2 1   
     2     1    24 1   
     3     1    25 1   
     4     2     3 2   
     5     2     4 1   
     6     3    26 1   
     7     4     5 ar  
     8     4     7 ar  
     9     5     6 ar  
    10     5    27 1   
    11     6     9 ar  
    12     6    28 1   
    13     7     8 ar  
    14     7    29 1   
    15     8     9 ar  
    16     8    30 1   
    17     9    10 1   
    18    10    11 2   
    19    10    12 1   
    20    11    14 1   
    21    11    31 1   
    22    12    13 1   
    23    13    14 2   
    24    13    32 1   
    25    14    15 1   
    26    15    16 ar  
    27    15    23 ar  
    28    16    17 ar  
    29    16    33 1   
    30    17    18 ar  
    31    17    34 1   
    32    18    19 1   
    33    18    22 ar  
    34    19    20 1   
    35    19    21 2   
    36    20    35 1   
    37    20    36 1   
    38    21    37 1   
    39    22    23 ar  
    40    22    38 1   
    41    23    39 1   
@<TRIPOS>SUBSTRUCTURE
     1 AFZ         1 TEMP              0 ****  ****    0 ROOT
