@<TRIPOS>MOLECULE
AFZ
   39    41     1     0     0
SMALL
abcg2


@<TRIPOS>ATOM
      1 N1          -7.0360     1.8830     0.3830 nv         1 AFZ      -1.074200
      2 C2          -6.6990     0.6790    -0.1660 ce         1 AFZ       0.658800
      3 N3          -7.4990    -0.1410    -0.7320 n2         1 AFZ      -0.824100
      4 C4          -5.2470     0.3510    -0.1350 ca         1 AFZ      -0.137900
      5 C7          -4.8370    -0.9760    -0.2260 ca         1 AFZ      -0.079500
      6 C8          -3.4960    -1.3130    -0.2000 ca         1 AFZ      -0.100500
      7 C5          -4.2700     1.3410    -0.0330 ca         1 AFZ      -0.079500
      8 C6          -2.9280     1.0110    -0.0160 ca         1 AFZ      -0.100500
      9 C9          -2.5170    -0.3210    -0.0940 ca         1 AFZ      -0.107500
     10 C10         -1.1000    -0.6380    -0.0660 cc         1 AFZ       0.183500
     11 C13          0.0130     0.1370     0.0050 cd         1 AFZ      -0.158000
     12 O11         -0.7370    -1.9390    -0.1180 os         1 AFZ      -0.230000
     13 C12          0.6050    -1.9980    -0.0780 cc         1 AFZ       0.150900
     14 C14          1.1370    -0.7470     0.0010 cd         1 AFZ      -0.115000
     15 C15          2.5500    -0.3770     0.0580 ca         1 AFZ       0.017000
     16 C16          2.9410     0.9530    -0.0850 ca         1 AFZ      -0.114500
     17 C17          4.2780     1.3130    -0.0440 ca         1 AFZ      -0.075500
     18 C20          5.2690     0.3540     0.1450 ca         1 AFZ      -0.146900
     19 C21          6.7130     0.7110     0.2040 ce         1 AFZ       0.660800
     20 N22          7.0470     1.8920    -0.3950 nv         1 AFZ      -1.075200
     21 N23          7.5090    -0.0640     0.8360 n2         1 AFZ      -0.827100
     22 C19          4.8810    -0.9760     0.3030 ca         1 AFZ      -0.075500
     23 C18          3.5480    -1.3370     0.2570 ca         1 AFZ      -0.114500
     24 H24         -6.4670     2.2440     1.1310 hn         1 AFZ       0.460500
     25 H25         -8.0190     2.0750     0.5010 hn         1 AFZ       0.460500
     26 H27         -8.4610     0.1770    -0.6600 hn         1 AFZ       0.371400
     27 H30         -5.5820    -1.7560    -0.3080 ha         1 AFZ       0.129000
     28 H31         -3.2190    -2.3570    -0.2620 ha         1 AFZ       0.122000
     29 H28         -4.5460     2.3870     0.0150 ha         1 AFZ       0.129000
     30 H29         -2.1940     1.8040     0.0560 ha         1 AFZ       0.122000
     31 H33          0.0370     1.2140     0.0620 ha         1 AFZ       0.142000
     32 H32          1.0420    -2.9830    -0.1200 h4         1 AFZ       0.057100
     33 H34          2.1980     1.7260    -0.2320 ha         1 AFZ       0.113500
     34 H35          4.5340     2.3600    -0.1450 ha         1 AFZ       0.127000
     35 H39          6.4950     2.2070    -1.1750 hn         1 AFZ       0.460000
     36 H38          8.0290     2.0970    -0.4920 hn         1 AFZ       0.460000
     37 H41          8.4680     0.2700     0.7780 hn         1 AFZ       0.370400
     38 H37          5.6370    -1.7340     0.4590 ha         1 AFZ       0.127000
     39 H36          3.2840    -2.3790     0.3830 ha         1 AFZ       0.113500
@<TRIPOS>BOND
     1     1     2 1   
     2     1    24 1   
     3     1    25 1   
     4     2     3 2   
     5     2     4 1   
     6     3    26 1   
     7     4     5 ar  
     8     4     7 ar  
     9     5     6 ar  
    10     5    27 1   
    11     6     9 ar  
    12     6    28 1   
    13     7     8 ar  
    14     7    29 1   
    15     8     9 ar  
    16     8    30 1   
    17     9    10 1   
    18    10    11 2   
    19    10    12 1   
    20    11    14 1   
    21    11    31 1   
    22    12    13 1   
    23    13    14 2   
    24    13    32 1   
    25    14    15 1   
    26    15    16 ar  
    27    15    23 ar  
    28    16    17 ar  
    29    16    33 1   
    30    17    18 ar  
    31    17    34 1   
    32    18    19 1   
    33    18    22 ar  
    34    19    20 1   
    35    19    21 2   
    36    20    35 1   
    37    20    36 1   
    38    21    37 1   
    39    22    23 ar  
    40    22    38 1   
    41    23    39 1   
@<TRIPOS>SUBSTRUCTURE
     1 AFZ         1 TEMP              0 ****  ****    0 ROOT
