@<TRIPOS>MOLECULE
AG0
   74    78     1     0     0
SMALL
bcc


@<TRIPOS>ATOM
      1 O19         -0.9480     1.2250    -2.5600 o          1 AG0      -0.593500
      2 C17         -0.6000     1.1230    -1.4030 c          1 AG0       0.765800
      3 C18         -1.1060     0.1000    -0.4960 ce         1 AG0      -0.383400
      4 C13         -0.8690     0.2270     0.8310 c2         1 AG0       0.211900
      5 O20         -1.3890    -0.5360     1.7770 oh         1 AG0      -0.520100
      6 C1          -1.8940    -1.0380    -1.1030 c3         1 AG0      -0.017500
      7 C9          -3.3290    -1.0460    -0.7110 cc         1 AG0       0.556300
      8 N8          -4.3300    -0.9440    -1.5560 nd         1 AG0      -0.571100
      9 N10         -3.6850    -1.1720     0.5840 nc         1 AG0      -0.462300
     10 C4          -5.0090    -1.1390     0.5600 cd         1 AG0       0.442500
     11 N5          -5.4000    -1.0040    -0.7460 na         1 AG0       0.030200
     12 C6          -6.7040    -0.9440    -1.1110 cc         1 AG0       0.075400
     13 C7          -7.5980    -1.0240    -0.0830 cd         1 AG0      -0.322300
     14 C12         -7.0350    -0.8040    -2.5490 c3         1 AG0      -0.059800
     15 N3          -5.8720    -1.2160     1.5660 nd         1 AG0      -0.651000
     16 C2          -7.1490    -1.1580     1.2540 cc         1 AG0       0.490600
     17 C11         -8.1510    -1.2340     2.3570 c3         1 AG0      -0.155400
     18 O16          0.2720     2.0260    -0.9420 os         1 AG0      -0.424900
     19 C15          0.9810     1.8250     0.2950 c6         1 AG0       0.197800
     20 C14          0.0150     1.3090     1.3520 c6         1 AG0      -0.094200
     21 C27          1.5240     3.2010     0.6930 c5         1 AG0      -0.057700
     22 C23          0.4460     4.3180     0.7690 c5         1 AG0      -0.072400
     23 C26          2.6140     3.7520    -0.2470 c5         1 AG0      -0.072400
     24 C25          2.4300     5.2660    -0.2010 c5         1 AG0      -0.078900
     25 C24          0.9130     5.4140    -0.1930 c5         1 AG0      -0.078900
     26 C21          2.1100     0.8220     0.0060 c3         1 AG0      -0.100400
     27 C22          3.0680     0.5570     1.1710 c3         1 AG0      -0.032100
     28 C29          4.1590    -0.3790     0.7380 ca         1 AG0      -0.040300
     29 C30          5.4000     0.0950     0.3340 ca         1 AG0      -0.247300
     30 C28          3.9480    -1.7510     0.6850 ca         1 AG0      -0.247300
     31 C33          4.9630    -2.5840     0.2280 ca         1 AG0       0.426100
     32 C34          4.7490    -4.0650     0.1010 c3         1 AG0      -0.125700
     33 C35          4.4380    -4.4630    -1.3410 c3         1 AG0      -0.084600
     34 N32          6.1450    -2.1110    -0.1580 nb         1 AG0      -0.681000
     35 C31          6.3690    -0.8000    -0.1060 ca         1 AG0       0.426100
     36 C36          7.7320    -0.3300    -0.5320 c3         1 AG0      -0.125700
     37 C37          8.8470    -0.9240     0.3240 c3         1 AG0      -0.084600
     38 H1          -1.8210    -0.9980    -2.1870 hc         1 AG0       0.079700
     39 H1A         -1.4570    -1.9920    -0.7940 hc         1 AG0       0.079700
     40 H7          -8.6570    -0.9820    -0.2940 ha         1 AG0       0.162000
     41 H12         -6.6410    -1.6460    -3.1180 hc         1 AG0       0.073033
     42 H12A        -8.1120    -0.7630    -2.6820 hc         1 AG0       0.073033
     43 H12B        -6.5930     0.1040    -2.9610 hc         1 AG0       0.073033
     44 H11         -8.8120    -2.0900     2.2150 hc         1 AG0       0.064033
     45 H11A        -7.6620    -1.3240     3.3240 hc         1 AG0       0.064033
     46 H11B        -8.7790    -0.3420     2.3620 hc         1 AG0       0.064033
     47 H14         -0.6190     2.1160     1.7340 hc         1 AG0       0.083200
     48 H14A         0.5680     0.9380     2.2170 hc         1 AG0       0.083200
     49 H27          1.9570     3.0800     1.6910 hc         1 AG0       0.049700
     50 H23         -0.5570     3.9680     0.5250 hc         1 AG0       0.046950
     51 H23A         0.3980     4.7100     1.7860 hc         1 AG0       0.046950
     52 H26          3.6170     3.4340     0.0430 hc         1 AG0       0.046950
     53 H26A         2.4520     3.4070    -1.2720 hc         1 AG0       0.046950
     54 H25          2.8550     5.6730     0.7220 hc         1 AG0       0.045450
     55 H25A         2.9120     5.7760    -1.0370 hc         1 AG0       0.045450
     56 H24          0.5250     5.2230    -1.1970 hc         1 AG0       0.045450
     57 H24A         0.5730     6.4070     0.1040 hc         1 AG0       0.045450
     58 H21          1.6790    -0.1320    -0.3100 hc         1 AG0       0.063700
     59 H21A         2.6830     1.1920    -0.8470 hc         1 AG0       0.063700
     60 H22          3.5110     1.4880     1.5270 hc         1 AG0       0.052200
     61 H22A         2.5300     0.1170     2.0130 hc         1 AG0       0.052200
     62 H30          5.6180     1.1570     0.3620 ha         1 AG0       0.139000
     63 H28          3.0000    -2.1750     0.9970 ha         1 AG0       0.139000
     64 H34          5.6450    -4.5890     0.4400 hc         1 AG0       0.051200
     65 H34A         3.9290    -4.3770     0.7510 hc         1 AG0       0.051200
     66 H35          3.5310    -3.9700    -1.6960 hc         1 AG0       0.037533
     67 H35A         5.2540    -4.1840    -2.0080 hc         1 AG0       0.037533
     68 H35B         4.2880    -5.5400    -1.4240 hc         1 AG0       0.037533
     69 H36          7.8910    -0.6080    -1.5770 hc         1 AG0       0.051200
     70 H36A         7.7720     0.7600    -0.4900 hc         1 AG0       0.051200
     71 H37          8.7300    -0.6470     1.3720 hc         1 AG0       0.037533
     72 H37A         8.8470    -2.0120     0.2630 hc         1 AG0       0.037533
     73 H37B         9.8220    -0.5670    -0.0090 hc         1 AG0       0.037533
     74 H38         -2.2470    -0.9490     1.4820 ho         1 AG0       0.502000
@<TRIPOS>BOND
     1     1     2 2   
     2     2     3 1   
     3     2    18 1   
     4     3     4 2   
     5     3     6 1   
     6     4     5 1   
     7     4    20 1   
     8     5    74 1   
     9     6     7 1   
    10     6    38 1   
    11     6    39 1   
    12     7     8 2   
    13     7     9 1   
    14     8    11 1   
    15     9    10 2   
    16    10    11 1   
    17    10    15 1   
    18    11    12 1   
    19    12    13 2   
    20    12    14 1   
    21    13    16 1   
    22    13    40 1   
    23    14    41 1   
    24    14    42 1   
    25    14    43 1   
    26    15    16 2   
    27    16    17 1   
    28    17    44 1   
    29    17    45 1   
    30    17    46 1   
    31    18    19 1   
    32    19    20 1   
    33    19    21 1   
    34    19    26 1   
    35    20    47 1   
    36    20    48 1   
    37    21    22 1   
    38    21    23 1   
    39    21    49 1   
    40    22    25 1   
    41    22    50 1   
    42    22    51 1   
    43    23    24 1   
    44    23    52 1   
    45    23    53 1   
    46    24    25 1   
    47    24    54 1   
    48    24    55 1   
    49    25    56 1   
    50    25    57 1   
    51    26    27 1   
    52    26    58 1   
    53    26    59 1   
    54    27    28 1   
    55    27    60 1   
    56    27    61 1   
    57    28    29 ar  
    58    28    30 ar  
    59    29    35 ar  
    60    29    62 1   
    61    30    31 ar  
    62    30    63 1   
    63    31    32 1   
    64    31    34 ar  
    65    32    33 1   
    66    32    64 1   
    67    32    65 1   
    68    33    66 1   
    69    33    67 1   
    70    33    68 1   
    71    34    35 ar  
    72    35    36 1   
    73    36    37 1   
    74    36    69 1   
    75    36    70 1   
    76    37    71 1   
    77    37    72 1   
    78    37    73 1   
@<TRIPOS>SUBSTRUCTURE
     1 AG0         1 TEMP              0 ****  ****    0 ROOT
