@<TRIPOS>MOLECULE
AG0
   74    78     1     0     0
SMALL
No Charge or Current Charge


@<TRIPOS>ATOM
      1 O19         -0.8960     1.0920    -2.8440 o          1 AG0      -0.518000
      2 C17         -0.5650     1.1210    -1.6690 c          1 AG0       0.690300
      3 C18         -1.0540     0.1250    -0.6480 ce         1 AG0      -0.383400
      4 C13         -0.7870     0.3200     0.6590 c2         1 AG0       0.211900
      5 O20         -1.1720    -0.4980     1.6480 oh         1 AG0      -0.559100
      6 C1          -1.8220    -1.1030    -1.1830 c3         1 AG0      -0.017500
      7 C9          -3.2840    -1.1720    -0.8150 cc         1 AG0       0.556300
      8 N8          -4.2580    -0.7930    -1.6320 nd         1 AG0      -0.571100
      9 N10         -3.6270    -1.6380     0.4190 nc         1 AG0      -0.462300
     10 C4          -4.9280    -1.5450     0.3760 cd         1 AG0       0.442500
     11 N5          -5.3500    -1.0400    -0.8410 na         1 AG0       0.080900
     12 C6          -6.7000    -0.8490    -1.1200 cc         1 AG0       0.024700
     13 C7          -7.4860    -1.2290    -0.0360 cd         1 AG0      -0.239000
     14 C12         -7.1850    -0.3010    -2.4360 c3         1 AG0      -0.059800
     15 N3          -5.6930    -1.9230     1.4530 nd         1 AG0      -0.651000
     16 C2          -6.9790    -1.7300     1.1600 cc         1 AG0       0.425300
     17 C11         -7.9480    -2.0990     2.2480 c3         1 AG0      -0.155400
     18 O16          0.2810     2.0930    -1.1930 os         1 AG0      -0.448100
     19 C15          0.9800     1.9890     0.0640 c6         1 AG0       0.221000
     20 C14         -0.0230     1.5210     1.1460 c6         1 AG0      -0.094200
     21 C27          1.5710     3.4000     0.4300 c5         1 AG0      -0.057700
     22 C23          0.5620     4.5870     0.4590 c5         1 AG0      -0.072400
     23 C26          2.5940     3.9930    -0.5810 c5         1 AG0      -0.072400
     24 C25          2.8520     5.4060     0.0100 c5         1 AG0      -0.078900
     25 C24          1.4920     5.8180     0.6580 c5         1 AG0      -0.078900
     26 C21          2.1130     0.9200    -0.1750 c3         1 AG0      -0.100400
     27 C22          3.0980     0.6580     0.9930 c3         1 AG0      -0.032100
     28 C29          4.1250    -0.4020     0.6270 ca         1 AG0      -0.040300
     29 C30          5.3780    -0.0510     0.0990 ca         1 AG0      -0.164000
     30 C28          3.8450    -1.7690     0.7890 ca         1 AG0      -0.164000
     31 C33          4.8150    -2.7210     0.4280 ca         1 AG0       0.360800
     32 C34          4.5380    -4.2100     0.5830 c3         1 AG0      -0.125700
     33 C35          3.6160    -4.7600    -0.5250 c3         1 AG0      -0.084600
     34 N32          6.0210    -2.3790    -0.0780 nb         1 AG0      -0.681000
     35 C31          6.2940    -1.0640    -0.2390 ca         1 AG0       0.360800
     36 C36          7.6630    -0.7170    -0.8080 c3         1 AG0      -0.125700
     37 C37          8.6570    -0.2540     0.2770 c3         1 AG0      -0.084600
     38 H1          -1.7460    -1.1790    -2.2740 hc         1 AG0       0.079700
     39 H1A         -1.3350    -2.0190    -0.8280 hc         1 AG0       0.079700
     40 H7          -8.5620    -1.1280    -0.1260 ha         1 AG0       0.144000
     41 H12         -6.8770    -0.9490    -3.2650 hc         1 AG0       0.073033
     42 H12A        -8.2780    -0.2240    -2.4570 hc         1 AG0       0.073033
     43 H12B        -6.7740     0.6990    -2.6170 hc         1 AG0       0.073033
     44 H11         -8.6410    -2.8730     1.8990 hc         1 AG0       0.064033
     45 H11A        -7.4400    -2.4840     3.1410 hc         1 AG0       0.064033
     46 H11B        -8.5380    -1.2270     2.5500 hc         1 AG0       0.064033
     47 H14         -0.7500     2.3110     1.3660 hc         1 AG0       0.083200
     48 H14A         0.4890     1.3060     2.0920 hc         1 AG0       0.083200
     49 H27          2.0300     3.2820     1.4190 hc         1 AG0       0.049700
     50 H23         -0.0010     4.6660    -0.4790 hc         1 AG0       0.046950
     51 H23A        -0.1720     4.5090     1.2680 hc         1 AG0       0.046950
     52 H26          3.5210     3.4110    -0.6430 hc         1 AG0       0.046950
     53 H26A         2.1800     4.0520    -1.5940 hc         1 AG0       0.046950
     54 H25          3.6460     5.3760     0.7650 hc         1 AG0       0.045450
     55 H25A         3.1750     6.1150    -0.7610 hc         1 AG0       0.045450
     56 H24          1.0710     6.7180     0.1950 hc         1 AG0       0.045450
     57 H24A         1.6260     6.0430     1.7230 hc         1 AG0       0.045450
     58 H21          1.6710    -0.0460    -0.4450 hc         1 AG0       0.063700
     59 H21A         2.7030     1.2100    -1.0520 hc         1 AG0       0.063700
     60 H22          3.6120     1.5880     1.2640 hc         1 AG0       0.052200
     61 H22A         2.5460     0.3380     1.8840 hc         1 AG0       0.052200
     62 H30          5.6430     0.9920    -0.0510 ha         1 AG0       0.121000
     63 H28          2.8870    -2.0930     1.1870 ha         1 AG0       0.121000
     64 H34          5.4750    -4.7790     0.5800 hc         1 AG0       0.051200
     65 H34A         4.0710    -4.3960     1.5580 hc         1 AG0       0.051200
     66 H35          2.6460    -4.2490    -0.5140 hc         1 AG0       0.037533
     67 H35A         4.0710    -4.6170    -1.5120 hc         1 AG0       0.037533
     68 H35B         3.4410    -5.8330    -0.3800 hc         1 AG0       0.037533
     69 H36          8.0900    -1.5780    -1.3360 hc         1 AG0       0.051200
     70 H36A         7.5580     0.0790    -1.5550 hc         1 AG0       0.051200
     71 H37          8.2840     0.6410     0.7900 hc         1 AG0       0.037533
     72 H37A         8.8080    -1.0430     1.0240 hc         1 AG0       0.037533
     73 H37B         9.6290    -0.0140    -0.1700 hc         1 AG0       0.037533
     74 H38         -1.8120    -1.1410     1.2690 ho         1 AG0       0.541000
@<TRIPOS>BOND
     1     1     2 2   
     2     2     3 1   
     3     2    18 1   
     4     3     4 2   
     5     3     6 1   
     6     4     5 1   
     7     4    20 1   
     8     5    74 1   
     9     6     7 1   
    10     6    38 1   
    11     6    39 1   
    12     7     8 2   
    13     7     9 1   
    14     8    11 1   
    15     9    10 2   
    16    10    11 1   
    17    10    15 1   
    18    11    12 1   
    19    12    13 2   
    20    12    14 1   
    21    13    16 1   
    22    13    40 1   
    23    14    41 1   
    24    14    42 1   
    25    14    43 1   
    26    15    16 2   
    27    16    17 1   
    28    17    44 1   
    29    17    45 1   
    30    17    46 1   
    31    18    19 1   
    32    19    20 1   
    33    19    21 1   
    34    19    26 1   
    35    20    47 1   
    36    20    48 1   
    37    21    22 1   
    38    21    23 1   
    39    21    49 1   
    40    22    25 1   
    41    22    50 1   
    42    22    51 1   
    43    23    24 1   
    44    23    52 1   
    45    23    53 1   
    46    24    25 1   
    47    24    54 1   
    48    24    55 1   
    49    25    56 1   
    50    25    57 1   
    51    26    27 1   
    52    26    58 1   
    53    26    59 1   
    54    27    28 1   
    55    27    60 1   
    56    27    61 1   
    57    28    29 ar  
    58    28    30 ar  
    59    29    35 ar  
    60    29    62 1   
    61    30    31 ar  
    62    30    63 1   
    63    31    32 1   
    64    31    34 ar  
    65    32    33 1   
    66    32    64 1   
    67    32    65 1   
    68    33    66 1   
    69    33    67 1   
    70    33    68 1   
    71    34    35 ar  
    72    35    36 1   
    73    36    37 1   
    74    36    69 1   
    75    36    70 1   
    76    37    71 1   
    77    37    72 1   
    78    37    73 1   
@<TRIPOS>SUBSTRUCTURE
     1 AG0         1 TEMP              0 ****  ****    0 ROOT
