@<TRIPOS>MOLECULE
AG4
   44    45     1     0     0
SMALL
No Charge or Current Charge


@<TRIPOS>ATOM
      1 O14         68.8710    73.4270    98.2540 o          1 AG4      -0.572100
      2 C1          68.0620    72.9290    99.0190 c          1 AG4       0.617700
      3 N15         68.2050    71.6350    99.4750 ns         1 AG4      -0.504900
      4 C16         69.2930    70.7210    99.1030 c3         1 AG4       0.101000
      5 C17         68.8530    69.6850    98.0470 c3         1 AG4      -0.098400
      6 C19         68.5450    70.2780    96.6580 c3         1 AG4       0.164600
      7 O18         69.7730    70.7770    96.1040 os         1 AG4      -0.448000
      8 C20         69.6320    71.4110    94.8220 c3         1 AG4       0.147900
      9 C6          66.8150    73.6320    99.4680 ca         1 AG4      -0.219600
     10 C7          65.6420    72.8960    99.7340 ca         1 AG4       0.029000
     11 C5          66.7690    75.0370    99.6270 ca         1 AG4       0.531300
     12 N4          65.6480    75.6900   100.0160 nb         1 AG4      -0.693000
     13 C3          64.5320    74.9780   100.2640 ca         1 AG4       0.479900
     14 C2          64.4930    73.5940   100.1340 ca         1 AG4      -0.384500
     15 S8          62.9750    72.7720   100.4970 sy         1 AG4       1.175600
     16 O12         62.1520    73.5940   101.3820 o          1 AG4      -0.525500
     17 O11         63.2140    71.3500   100.7190 o          1 AG4      -0.525500
     18 N9          62.2290    72.8250    99.0470 n8         1 AG4      -1.042100
     19 S10         68.2090    76.0940    99.4150 ss         1 AG4      -0.045300
     20 C13         68.6690    76.3650   101.1280 ca         1 AG4      -0.156000
     21 C21         68.8780    75.2750   101.9960 ca         1 AG4      -0.049500
     22 C22         69.2390    75.5040   103.3360 ca         1 AG4      -0.123500
     23 C23         69.3950    76.8180   103.8100 ca         1 AG4      -0.079000
     24 C24         69.1910    77.9050   102.9430 ca         1 AG4      -0.123500
     25 C25         68.8300    77.6790   101.6030 ca         1 AG4      -0.049500
     26 HN15        67.5020    71.3010   100.1220 hn         1 AG4       0.307500
     27 H16         70.1570    71.2900    98.7330 h1         1 AG4       0.068700
     28 H16A        69.6160    70.1900   100.0090 h1         1 AG4       0.068700
     29 H17         69.6400    68.9280    97.9400 hc         1 AG4       0.051200
     30 H17A        67.9640    69.1580    98.4130 hc         1 AG4       0.051200
     31 H19         68.1290    69.4920    96.0140 h1         1 AG4       0.017200
     32 H19A        67.7980    71.0780    96.7490 h1         1 AG4       0.017200
     33 H20         68.9590    72.2750    94.8860 h1         1 AG4       0.030033
     34 H20A        70.6070    71.7630    94.4610 h1         1 AG4       0.030033
     35 H20B        69.2280    70.7080    94.0820 h1         1 AG4       0.030033
     36 H7          65.6130    71.8140    99.6140 ha         1 AG4       0.105000
     37 H3          63.6580    75.5520   100.5690 h4         1 AG4       0.042100
     38 HN9         63.0070    72.6970    98.4050 hn         1 AG4       0.491000
     39 HN9A        61.7640    71.9210    99.0410 hn         1 AG4       0.491000
     40 H21         68.7680    74.2540   101.6390 ha         1 AG4       0.122500
     41 H22         69.4000    74.6620   104.0060 ha         1 AG4       0.116500
     42 H23         69.6740    76.9930   104.8470 ha         1 AG4       0.114000
     43 H24         69.3130    78.9220   103.3080 ha         1 AG4       0.116500
     44 H25         68.6730    78.5240   100.9360 ha         1 AG4       0.122500
@<TRIPOS>BOND
     1     1     2 2   
     2     2     3 1   
     3     2     9 1   
     4     3     4 1   
     5     3    26 1   
     6     4     5 1   
     7     4    27 1   
     8     4    28 1   
     9     5     6 1   
    10     5    29 1   
    11     5    30 1   
    12     6     7 1   
    13     6    31 1   
    14     6    32 1   
    15     7     8 1   
    16     8    33 1   
    17     8    34 1   
    18     8    35 1   
    19     9    10 ar  
    20     9    11 ar  
    21    10    14 ar  
    22    10    36 1   
    23    11    12 ar  
    24    11    19 1   
    25    12    13 ar  
    26    13    14 ar  
    27    13    37 1   
    28    14    15 1   
    29    15    16 2   
    30    15    17 2   
    31    15    18 1   
    32    18    38 1   
    33    18    39 1   
    34    19    20 1   
    35    20    21 ar  
    36    20    25 ar  
    37    21    22 ar  
    38    21    40 1   
    39    22    23 ar  
    40    22    41 1   
    41    23    24 ar  
    42    23    42 1   
    43    24    25 ar  
    44    24    43 1   
    45    25    44 1   
@<TRIPOS>SUBSTRUCTURE
     1 AG4         1 TEMP              0 ****  ****    0 ROOT
