@<TRIPOS>MOLECULE
AG4
   44    45     1     0     0
SMALL
abcg2


@<TRIPOS>ATOM
      1 O14         69.3280    72.8370    98.6740 o          1 AG4      -0.572100
      2 C1          68.3560    72.2670    99.1480 c          1 AG4       0.617700
      3 N15         68.1870    70.9390    99.1700 ns         1 AG4      -0.504900
      4 C16         69.0570    69.9900    98.5060 c3         1 AG4       0.101000
      5 C17         68.4160    69.4020    97.2520 c3         1 AG4      -0.098400
      6 C19         68.1160    70.4310    96.1820 c3         1 AG4       0.164600
      7 O18         69.3180    71.0070    95.7380 os         1 AG4      -0.448000
      8 C20         69.1150    72.1420    94.9390 c3         1 AG4       0.147900
      9 C6          67.2510    73.0680    99.7570 ca         1 AG4      -0.219600
     10 C7          65.9260    72.6910    99.6130 ca         1 AG4       0.029000
     11 C5          67.5170    74.2690   100.4340 ca         1 AG4       0.531300
     12 N4          66.5570    75.0150   100.9550 nb         1 AG4      -0.693000
     13 C3          65.2970    74.6440   100.8210 ca         1 AG4       0.479900
     14 C2          64.9300    73.4870   100.1490 ca         1 AG4      -0.384500
     15 S8          63.2030    73.0900   100.0420 sy         1 AG4       1.175600
     16 O12         62.5520    74.2230    99.4090 o          1 AG4      -0.525500
     17 O11         62.7790    72.6690   101.3650 o          1 AG4      -0.525500
     18 N9          63.0360    71.8100    99.0520 n8         1 AG4      -1.042100
     19 S10         69.1810    74.8290   100.6340 ss         1 AG4      -0.045300
     20 C13         68.9570    76.0730   101.8780 ca         1 AG4      -0.156000
     21 C21         68.9180    75.7130   103.2210 ca         1 AG4      -0.049500
     22 C22         68.7990    76.6950   104.1940 ca         1 AG4      -0.123500
     23 C23         68.7330    78.0340   103.8270 ca         1 AG4      -0.079000
     24 C24         68.7860    78.3910   102.4860 ca         1 AG4      -0.123500
     25 C25         68.8970    77.4110   101.5090 ca         1 AG4      -0.049500
     26 HN15        67.4060    70.5560    99.6790 hn         1 AG4       0.307500
     27 H16         69.9930    70.4890    98.2640 h1         1 AG4       0.068700
     28 H16A        69.2880    69.1890    99.2100 h1         1 AG4       0.068700
     29 H17         69.0750    68.6270    96.8530 hc         1 AG4       0.051200
     30 H17A        67.4800    68.9040    97.5190 hc         1 AG4       0.051200
     31 H19         67.5790    69.9560    95.3490 h1         1 AG4       0.017200
     32 H19A        67.4420    71.2010    96.5840 h1         1 AG4       0.017200
     33 H20         68.5760    72.9300    95.4790 h1         1 AG4       0.030033
     34 H20A        70.0900    72.5310    94.6470 h1         1 AG4       0.030033
     35 H20B        68.5490    71.9120    94.0270 h1         1 AG4       0.030033
     36 H7          65.6750    71.7880    99.0700 ha         1 AG4       0.105000
     37 H3          64.5550    75.3020   101.2600 h4         1 AG4       0.042100
     38 HN9         63.2600    71.9620    98.0760 hn         1 AG4       0.491000
     39 HN9A        63.3470    70.9160    99.4120 hn         1 AG4       0.491000
     40 H21         68.9780    74.6700   103.5040 ha         1 AG4       0.122500
     41 H22         68.7640    76.4160   105.2380 ha         1 AG4       0.116500
     42 H23         68.6440    78.7980   104.5870 ha         1 AG4       0.114000
     43 H24         68.7380    79.4330   102.2000 ha         1 AG4       0.116500
     44 H25         68.9350    77.6860   100.4630 ha         1 AG4       0.122500
@<TRIPOS>BOND
     1     1     2 2   
     2     2     3 1   
     3     2     9 1   
     4     3     4 1   
     5     3    26 1   
     6     4     5 1   
     7     4    27 1   
     8     4    28 1   
     9     5     6 1   
    10     5    29 1   
    11     5    30 1   
    12     6     7 1   
    13     6    31 1   
    14     6    32 1   
    15     7     8 1   
    16     8    33 1   
    17     8    34 1   
    18     8    35 1   
    19     9    10 ar  
    20     9    11 ar  
    21    10    14 ar  
    22    10    36 1   
    23    11    12 ar  
    24    11    19 1   
    25    12    13 ar  
    26    13    14 ar  
    27    13    37 1   
    28    14    15 1   
    29    15    16 2   
    30    15    17 2   
    31    15    18 1   
    32    18    38 1   
    33    18    39 1   
    34    19    20 1   
    35    20    21 ar  
    36    20    25 ar  
    37    21    22 ar  
    38    21    40 1   
    39    22    23 ar  
    40    22    41 1   
    41    23    24 ar  
    42    23    42 1   
    43    24    25 ar  
    44    24    43 1   
    45    25    44 1   
@<TRIPOS>SUBSTRUCTURE
     1 AG4         1 TEMP              0 ****  ****    0 ROOT
