@<TRIPOS>MOLECULE
AG5
   47    49     1     0     0
SMALL
bcc


@<TRIPOS>ATOM
      1 O14          0.8900    -1.8390    -0.2150 o          1 AG5      -0.596100
      2 C1           0.8820    -0.6220    -0.0720 c          1 AG5       0.683700
      3 N15          2.0080     0.0860     0.0630 ns         1 AG5      -0.568900
      4 C16          3.3150    -0.5420     0.0390 c3         1 AG5       0.105000
      5 C17          4.4070     0.5210     0.0810 c3         1 AG5      -0.049100
      6 C18          5.7700    -0.1130     0.0590 ca         1 AG5      -0.084300
      7 C24          6.3990    -0.4060    -1.1490 ca         1 AG5      -0.121000
      8 C25          7.6390    -1.0290    -1.1730 ca         1 AG5      -0.126000
      9 C26          8.2690    -1.3730     0.0160 ca         1 AG5      -0.124000
     10 C27          7.6510    -1.0860     1.2260 ca         1 AG5      -0.126000
     11 C28          6.4110    -0.4620     1.2450 ca         1 AG5      -0.121000
     12 C6          -0.4170     0.1100    -0.0510 ca         1 AG5      -0.289900
     13 C7          -0.4920     1.4950    -0.0170 ca         1 AG5       0.038000
     14 C5          -1.6380    -0.5980    -0.0770 ca         1 AG5       0.597600
     15 N4          -2.8120     0.0200    -0.0740 nb         1 AG5      -0.710000
     16 C3          -2.8680     1.3350    -0.0420 ca         1 AG5       0.553200
     17 C2          -1.7240     2.1190    -0.0100 ca         1 AG5      -0.436800
     18 S8          -1.8560     3.8770     0.0760 sy         1 AG5       1.287200
     19 O11         -3.0130     4.2240     0.8840 o          1 AG5      -0.615800
     20 O12         -0.5490     4.3860     0.4660 o          1 AG5      -0.615800
     21 N9          -2.2630     4.2400    -1.4800 n8         1 AG5      -0.893700
     22 S10         -1.6900    -2.3620    -0.1050 ss         1 AG5      -0.130200
     23 C13         -3.4410    -2.6370    -0.0070 ca         1 AG5      -0.039100
     24 C19         -4.1720    -2.8410    -1.1720 ca         1 AG5      -0.067000
     25 C20         -5.5230    -3.1490    -1.0930 ca         1 AG5      -0.142500
     26 C21         -6.1410    -3.2570     0.1460 ca         1 AG5      -0.099000
     27 C22         -5.4060    -3.0600     1.3090 ca         1 AG5      -0.142500
     28 C23         -4.0550    -2.7530     1.2340 ca         1 AG5      -0.067000
     29 HN15         1.9800     1.0750     0.2380 hn         1 AG5       0.317500
     30 H16          3.4240    -1.2220     0.8890 h1         1 AG5       0.059700
     31 H16A         3.4170    -1.1420    -0.8680 h1         1 AG5       0.059700
     32 H17          4.2910     1.1930    -0.7740 hc         1 AG5       0.050700
     33 H17A         4.2920     1.1280     0.9830 hc         1 AG5       0.050700
     34 H24          5.9160    -0.1400    -2.0830 ha         1 AG5       0.129500
     35 H25          8.1140    -1.2440    -2.1210 ha         1 AG5       0.132000
     36 H26          9.2360    -1.8590    -0.0000 ha         1 AG5       0.132000
     37 H27          8.1360    -1.3450     2.1590 ha         1 AG5       0.132000
     38 H28          5.9380    -0.2390     2.1940 ha         1 AG5       0.129500
     39 H7           0.3990     2.1080     0.0010 ha         1 AG5       0.148000
     40 H3          -3.8570     1.7780    -0.0460 h4         1 AG5       0.045100
     41 HN9         -1.4820     4.1530    -2.1230 hn         1 AG5       0.419300
     42 HN9A        -2.6730     5.1670    -1.5500 hn         1 AG5       0.419300
     43 H19         -3.6880    -2.7570    -2.1360 ha         1 AG5       0.139000
     44 H20         -6.0920    -3.3060    -2.0000 ha         1 AG5       0.132500
     45 H21         -7.1940    -3.4980     0.2060 ha         1 AG5       0.131000
     46 H22         -5.8850    -3.1500     2.2750 ha         1 AG5       0.132500
     47 H23         -3.4810    -2.6030     2.1390 ha         1 AG5       0.139000
@<TRIPOS>BOND
     1     1     2 2   
     2     2     3 1   
     3     2    12 1   
     4     3     4 1   
     5     3    29 1   
     6     4     5 1   
     7     4    30 1   
     8     4    31 1   
     9     5     6 1   
    10     5    32 1   
    11     5    33 1   
    12     6     7 ar  
    13     6    11 ar  
    14     7     8 ar  
    15     7    34 1   
    16     8     9 ar  
    17     8    35 1   
    18     9    10 ar  
    19     9    36 1   
    20    10    11 ar  
    21    10    37 1   
    22    11    38 1   
    23    12    13 ar  
    24    12    14 ar  
    25    13    17 ar  
    26    13    39 1   
    27    14    15 ar  
    28    14    22 1   
    29    15    16 ar  
    30    16    17 ar  
    31    16    40 1   
    32    17    18 1   
    33    18    19 2   
    34    18    20 2   
    35    18    21 1   
    36    21    41 1   
    37    21    42 1   
    38    22    23 1   
    39    23    24 ar  
    40    23    28 ar  
    41    24    25 ar  
    42    24    43 1   
    43    25    26 ar  
    44    25    44 1   
    45    26    27 ar  
    46    26    45 1   
    47    27    28 ar  
    48    27    46 1   
    49    28    47 1   
@<TRIPOS>SUBSTRUCTURE
     1 AG5         1 TEMP              0 ****  ****    0 ROOT
