@<TRIPOS>MOLECULE
AG5
   47    49     1     0     0
SMALL
No Charge or Current Charge


@<TRIPOS>ATOM
      1 O14          0.4650    -1.7470     0.2420 o          1 AG5      -0.596100
      2 C1           0.5400    -0.5380     0.3920 c          1 AG5       0.616700
      3 N15          1.7590     0.1010     0.3550 ns         1 AG5      -0.501900
      4 C16          3.0410    -0.5810     0.1690 c3         1 AG5       0.105000
      5 C17          4.2210     0.4080     0.1440 c3         1 AG5      -0.049100
      6 C18          5.5530    -0.3030    -0.0510 ca         1 AG5      -0.084300
      7 C24          6.0560    -0.5270    -1.3480 ca         1 AG5      -0.103000
      8 C25          7.2830    -1.1890    -1.5280 ca         1 AG5      -0.108000
      9 C26          8.0140    -1.6310    -0.4130 ca         1 AG5      -0.106000
     10 C27          7.5170    -1.4120     0.8830 ca         1 AG5      -0.108000
     11 C28          6.2900    -0.7500     1.0630 ca         1 AG5      -0.103000
     12 C6          -0.6580     0.3520     0.5400 ca         1 AG5      -0.224600
     13 C7          -0.6260     1.6710     0.0430 ca         1 AG5       0.056000
     14 C5          -1.8510    -0.0980     1.1540 ca         1 AG5       0.532300
     15 N4          -2.9430     0.6940     1.2880 nb         1 AG5      -0.710000
     16 C3          -2.9020     1.9500     0.8030 ca         1 AG5       0.487900
     17 C2          -1.7710     2.4660     0.1850 ca         1 AG5      -0.371500
     18 S8          -1.8290     4.1240    -0.4120 sy         1 AG5       1.145600
     19 O11         -2.8990     4.8760     0.2360 o          1 AG5      -0.545000
     20 O12         -0.4830     4.6620    -0.5820 o          1 AG5      -0.545000
     21 N9          -2.3580     3.9280    -1.9370 n8         1 AG5      -1.004100
     22 S10         -2.0090    -1.7270     1.9080 ss         1 AG5      -0.003300
     23 C13         -3.2470    -2.4690     0.8410 ca         1 AG5      -0.166000
     24 C19         -3.0900    -2.4490    -0.5590 ca         1 AG5      -0.049000
     25 C20         -4.0660    -3.0360    -1.3840 ca         1 AG5      -0.124500
     26 C21         -5.1970    -3.6460    -0.8140 ca         1 AG5      -0.081000
     27 C22         -5.3510    -3.6710     0.5830 ca         1 AG5      -0.124500
     28 C23         -4.3770    -3.0840     1.4100 ca         1 AG5      -0.049000
     29 HN15         1.7610     1.1020     0.5080 hn         1 AG5       0.317500
     30 H16          3.1840    -1.2990     0.9880 h1         1 AG5       0.059700
     31 H16A         3.0130    -1.1400    -0.7760 h1         1 AG5       0.059700
     32 H17          4.0610     1.1370    -0.6610 hc         1 AG5       0.050700
     33 H17A         4.2320     0.9790     1.0800 hc         1 AG5       0.050700
     34 H24          5.4950    -0.1900    -2.2170 ha         1 AG5       0.111500
     35 H25          7.6670    -1.3590    -2.5320 ha         1 AG5       0.114000
     36 H26          8.9640    -2.1430    -0.5520 ha         1 AG5       0.114000
     37 H27          8.0820    -1.7550     1.7470 ha         1 AG5       0.114000
     38 H28          5.9110    -0.5860     2.0700 ha         1 AG5       0.111500
     39 H7           0.2520     2.0660    -0.4670 ha         1 AG5       0.130000
     40 H3          -3.8100     2.5400     0.9260 h4         1 AG5       0.045100
     41 HN9         -1.6010     4.3750    -2.4500 hn         1 AG5       0.474500
     42 HN9A        -3.0850     4.6400    -1.9750 hn         1 AG5       0.474500
     43 H19         -2.2150    -1.9870    -1.0090 ha         1 AG5       0.121000
     44 H20         -3.9430    -3.0200    -2.4640 ha         1 AG5       0.114500
     45 H21         -5.9510    -4.1010    -1.4530 ha         1 AG5       0.113000
     46 H22         -6.2250    -4.1440     1.0250 ha         1 AG5       0.114500
     47 H23         -4.5020    -3.1060     2.4910 ha         1 AG5       0.121000
@<TRIPOS>BOND
     1     1     2 2   
     2     2     3 1   
     3     2    12 1   
     4     3     4 1   
     5     3    29 1   
     6     4     5 1   
     7     4    30 1   
     8     4    31 1   
     9     5     6 1   
    10     5    32 1   
    11     5    33 1   
    12     6     7 ar  
    13     6    11 ar  
    14     7     8 ar  
    15     7    34 1   
    16     8     9 ar  
    17     8    35 1   
    18     9    10 ar  
    19     9    36 1   
    20    10    11 ar  
    21    10    37 1   
    22    11    38 1   
    23    12    13 ar  
    24    12    14 ar  
    25    13    17 ar  
    26    13    39 1   
    27    14    15 ar  
    28    14    22 1   
    29    15    16 ar  
    30    16    17 ar  
    31    16    40 1   
    32    17    18 1   
    33    18    19 2   
    34    18    20 2   
    35    18    21 1   
    36    21    41 1   
    37    21    42 1   
    38    22    23 1   
    39    23    24 ar  
    40    23    28 ar  
    41    24    25 ar  
    42    24    43 1   
    43    25    26 ar  
    44    25    44 1   
    45    26    27 ar  
    46    26    45 1   
    47    27    28 ar  
    48    27    46 1   
    49    28    47 1   
@<TRIPOS>SUBSTRUCTURE
     1 AG5         1 TEMP              0 ****  ****    0 ROOT
