@<TRIPOS>MOLECULE
AG6
   83    85     1     0     0
SMALL
No Charge or Current Charge


@<TRIPOS>ATOM
      1 N2          -0.0480     0.2130     0.0980 ns         1 AG6      -0.489900
      2 N3           3.3210    -0.5510     1.5220 ns         1 AG6      -0.509900
      3 O5          -1.7540    -0.3660     1.4950 o          1 AG6      -0.614100
      4 O6           2.5740     1.1420     0.1900 o          1 AG6      -0.588100
      5 C7          -1.3670     0.2410     0.5030 c          1 AG6       0.585100
      6 O7           7.3350     1.1800     0.8230 o          1 AG6      -0.528100
      7 C8           0.9970    -0.6670     0.6750 c3         1 AG6       0.032700
      8 C9           1.1200    -1.9830    -0.1410 c3         1 AG6      -0.046100
      9 C10          2.3590     0.0770     0.7560 c          1 AG6       0.588100
     10 C11          4.6670    -0.0310     1.7710 c3         1 AG6       0.137900
     11 C12          4.7710     0.6420     3.1590 c3         1 AG6      -0.079400
     12 C13          3.8590     1.8790     3.3400 c3         1 AG6      -0.077400
     13 C14          4.0420     2.5670     4.7070 c3         1 AG6      -0.088100
     14 C15          5.6630    -1.1690     1.6330 c2         1 AG6      -0.144200
     15 C22          6.9020    -1.1360     1.0780 ce         1 AG6      -0.299200
     16 C23          7.5500     0.0440     0.4190 c          1 AG6       0.586900
     17 C24         -0.9490    -2.5050    -1.5340 ca         1 AG6      -0.096000
     18 C25         -2.1910    -3.1380    -1.7090 ca         1 AG6      -0.108000
     19 C26         -0.2140    -2.6960    -0.3460 ca         1 AG6      -0.081300
     20 C27         -2.7040    -3.9720    -0.7020 ca         1 AG6      -0.114000
     21 C28         -0.7320    -3.5350     0.6600 ca         1 AG6      -0.096000
     22 C29         -1.9730    -4.1720     0.4820 ca         1 AG6      -0.108000
     23 C30          8.3820    -0.1790    -0.8260 ca         1 AG6      -0.162600
     24 C31          8.3440    -1.4020    -1.5390 ca         1 AG6      -0.061500
     25 C32          9.2100     0.8610    -1.3110 ca         1 AG6      -0.061500
     26 C33          9.1250    -1.5790    -2.6950 ca         1 AG6      -0.126000
     27 C34          9.9890     0.6780    -2.4660 ca         1 AG6      -0.126000
     28 C35          9.9490    -0.5420    -3.1580 ca         1 AG6      -0.088000
     29 HN2          0.2010     0.7840    -0.7020 hn         1 AG6       0.335500
     30 HN3          3.0550    -1.4230     1.9630 hn         1 AG6       0.313500
     31 C241        -2.3110     1.0850    -0.3970 c3         1 AG6       0.039700
     32 H8           0.7170    -0.9200     1.7050 h1         1 AG6       0.092700
     33 H19          1.5700    -1.7530    -1.1150 hc         1 AG6       0.049700
     34 H29          1.8250    -2.6560     0.3620 hc         1 AG6       0.049700
     35 H11          4.8900     0.7270     1.0070 h1         1 AG6       0.107700
     36 H112         4.5370    -0.0960     3.9360 hc         1 AG6       0.045200
     37 H212         5.8120     0.9480     3.3200 hc         1 AG6       0.045200
     38 H113         4.0690     2.6050     2.5450 hc         1 AG6       0.052200
     39 H213         2.8080     1.5830     3.2350 hc         1 AG6       0.052200
     40 H114         3.3770     3.4340     4.7910 hc         1 AG6       0.029700
     41 H214         3.8070     1.8740     5.5240 hc         1 AG6       0.029700
     42 H314         5.0750     2.9130     4.8320 hc         1 AG6       0.029700
     43 H24         -0.5630    -1.8570    -2.3170 ha         1 AG6       0.113000
     44 H25         -2.7570    -2.9810    -2.6250 ha         1 AG6       0.111000
     45 H27         -3.6650    -4.4620    -0.8370 ha         1 AG6       0.106000
     46 H28         -0.1780    -3.6870     1.5830 ha         1 AG6       0.113000
     47 H29A        -2.3690    -4.8160     1.2640 ha         1 AG6       0.111000
     48 H31          7.7020    -2.2190    -1.2200 ha         1 AG6       0.124000
     49 H32          9.2570     1.8150    -0.7890 ha         1 AG6       0.124000
     50 H33          9.0870    -2.5220    -3.2350 ha         1 AG6       0.113500
     51 H34         10.6240     1.4850    -2.8250 ha         1 AG6       0.113500
     52 H35         10.5520    -0.6820    -4.0530 ha         1 AG6       0.110000
     53 N31         -3.7080     0.6400    -0.2030 ns         1 AG6      -0.458900
     54 C251        -2.1490     2.6030    -0.1130 c3         1 AG6      -0.057400
     55 H241        -2.0180     0.8850    -1.4360 h1         1 AG6       0.081700
     56 C261        -2.9670     3.5280    -1.0540 c3         1 AG6      -0.210400
     57 H251        -2.4290     2.8070     0.9280 hc         1 AG6       0.060200
     58 H26         -1.0870     2.8660    -0.2050 hc         1 AG6       0.060200
     59 H271        -4.0230     3.3240    -0.8430 hc         1 AG6       0.024200
     60 C271        -2.6440     5.0020    -0.7600 c          1 AG6       0.719000
     61 H281        -2.6600     3.2670    -2.0740 hc         1 AG6       0.024200
     62 O4          -3.3020     5.5770     0.0930 o          1 AG6      -0.737500
     63 O51         -1.7070     5.5150    -1.3520 o          1 AG6      -0.737500
     64 H291        -4.0100     0.3760     0.7260 hn         1 AG6       0.338500
     65 C281        -4.6270     0.4740    -1.1990 c          1 AG6       0.639100
     66 O61         -5.7860     0.0190    -0.6520 os         1 AG6      -0.457100
     67 O71         -4.4320     0.6900    -2.3850 o          1 AG6      -0.567000
     68 C291        -6.8830    -0.2370    -1.5440 c3         1 AG6       0.229900
     69 H311        -7.1760     0.6800    -2.0730 h1         1 AG6       0.052700
     70 H321        -6.6050    -0.9870    -2.2970 h1         1 AG6       0.052700
     71 C301        -8.0590    -0.7540    -0.7250 ca         1 AG6      -0.087300
     72 C311        -9.0390     0.1370    -0.2440 ca         1 AG6      -0.089500
     73 C321       -10.1240    -0.3420     0.5110 ca         1 AG6      -0.117500
     74 C331       -10.2350    -1.7140     0.7900 ca         1 AG6      -0.110000
     75 C341        -9.2600    -2.6080     0.3160 ca         1 AG6      -0.117500
     76 C351        -8.1740    -2.1290    -0.4390 ca         1 AG6      -0.089500
     77 H115         5.2970    -2.1130     2.0430 ha         1 AG6       0.165000
     78 H122         7.4620    -2.0650     0.9970 ha         1 AG6       0.181000
     79 H351        -8.9590     1.2020    -0.4540 ha         1 AG6       0.119000
     80 H36        -10.8770     0.3510     0.8790 ha         1 AG6       0.108500
     81 H37        -11.0750    -2.0850     1.3750 ha         1 AG6       0.106000
     82 H38         -9.3440    -3.6700     0.5330 ha         1 AG6       0.108500
     83 H39         -7.4210    -2.8270    -0.8010 ha         1 AG6       0.119000
@<TRIPOS>BOND
     1     1     5 1   
     2     1     7 1   
     3     1    29 1   
     4     2     9 1   
     5     2    10 1   
     6     2    30 1   
     7     3     5 2   
     8     4     9 2   
     9     5    31 1   
    10     6    16 2   
    11     7     8 1   
    12     7     9 1   
    13     7    32 1   
    14     8    19 1   
    15     8    33 1   
    16     8    34 1   
    17    10    11 1   
    18    10    14 1   
    19    10    35 1   
    20    11    12 1   
    21    11    36 1   
    22    11    37 1   
    23    12    13 1   
    24    12    38 1   
    25    12    39 1   
    26    13    40 1   
    27    13    41 1   
    28    13    42 1   
    29    14    15 2   
    30    14    77 1   
    31    15    16 1   
    32    15    78 1   
    33    16    23 1   
    34    17    18 ar  
    35    17    19 ar  
    36    17    43 1   
    37    18    20 ar  
    38    18    44 1   
    39    19    21 ar  
    40    20    22 ar  
    41    20    45 1   
    42    21    22 ar  
    43    21    46 1   
    44    22    47 1   
    45    23    24 ar  
    46    23    25 ar  
    47    24    26 ar  
    48    24    48 1   
    49    25    27 ar  
    50    25    49 1   
    51    26    28 ar  
    52    26    50 1   
    53    27    28 ar  
    54    27    51 1   
    55    28    52 1   
    56    31    53 1   
    57    31    54 1   
    58    31    55 1   
    59    53    64 1   
    60    53    65 1   
    61    54    56 1   
    62    54    57 1   
    63    54    58 1   
    64    56    59 1   
    65    56    60 1   
    66    56    61 1   
    67    60    62 1   
    68    60    63 1   
    69    65    66 1   
    70    65    67 2   
    71    66    68 1   
    72    68    69 1   
    73    68    70 1   
    74    68    71 1   
    75    71    72 ar  
    76    71    76 ar  
    77    72    73 ar  
    78    72    79 1   
    79    73    74 ar  
    80    73    80 1   
    81    74    75 ar  
    82    74    81 1   
    83    75    76 ar  
    84    75    82 1   
    85    76    83 1   
@<TRIPOS>SUBSTRUCTURE
     1 AG6         1 TEMP              0 ****  ****    0 ROOT
