@<TRIPOS>MOLECULE
AG6
   83    85     1     0     0
SMALL
bcc


@<TRIPOS>ATOM
      1 N2          -0.1260     0.2400    -0.0720 ns         1 AG6      -0.556900
      2 N3           2.9040    -0.3760     1.7270 ns         1 AG6      -0.576900
      3 O5          -1.7180     0.6880     1.4760 o          1 AG6      -0.614100
      4 O6           2.6020     0.3510    -0.3890 o          1 AG6      -0.588100
      5 C7          -1.2840     0.7810     0.3400 c          1 AG6       0.652100
      6 O7           6.8460     1.0370     0.7550 o          1 AG6      -0.528100
      7 C8           0.7070    -0.5900     0.7510 c3         1 AG6       0.032700
      8 C9           0.6040    -2.0720     0.3350 c3         1 AG6      -0.046100
      9 C10          2.1600    -0.1410     0.6370 c          1 AG6       0.655100
     10 C11          4.3370    -0.1470     1.7740 c3         1 AG6       0.137900
     11 C12          4.7970    -0.1040     3.2340 c3         1 AG6      -0.079400
     12 C13          4.2110     1.0660     4.0160 c3         1 AG6      -0.077400
     13 C14          4.6640     1.0660     5.4690 c3         1 AG6      -0.088100
     14 C15          5.0480    -1.2410     1.0310 c2         1 AG6      -0.094200
     15 C22          6.1350    -1.1540     0.2580 ce         1 AG6      -0.249200
     16 C23          6.8840     0.0880    -0.0090 c          1 AG6       0.586900
     17 C24         -1.7180    -2.4960    -0.5480 ca         1 AG6      -0.114000
     18 C25         -3.0200    -2.9490    -0.3810 ca         1 AG6      -0.126000
     19 C26         -0.7940    -2.5960     0.4890 ca         1 AG6      -0.081300
     20 C27         -3.4160    -3.5100     0.8250 ca         1 AG6      -0.132000
     21 C28         -1.2040    -3.1550     1.6980 ca         1 AG6      -0.114000
     22 C29         -2.5030    -3.6100     1.8670 ca         1 AG6      -0.126000
     23 C30          7.7160     0.1530    -1.2420 ca         1 AG6      -0.162600
     24 C31          7.5220    -0.7210    -2.3120 ca         1 AG6      -0.079500
     25 C32          8.6960     1.1430    -1.3440 ca         1 AG6      -0.079500
     26 C33          8.2910    -0.6080    -3.4610 ca         1 AG6      -0.144000
     27 C34          9.4730     1.2460    -2.4840 ca         1 AG6      -0.144000
     28 C35          9.2710     0.3720    -3.5470 ca         1 AG6      -0.106000
     29 HN2          0.1500     0.3560    -1.0350 hn         1 AG6       0.335500
     30 HN3          2.4700    -0.8110     2.5280 hn         1 AG6       0.313500
     31 C241        -2.0280     1.5850    -0.7250 c3         1 AG6       0.039700
     32 H8           0.3630    -0.4880     1.7820 h1         1 AG6       0.092700
     33 H19          0.9400    -2.1710    -0.7010 hc         1 AG6       0.049700
     34 H29          1.2940    -2.6580     0.9470 hc         1 AG6       0.049700
     35 H11          4.5430     0.8210     1.3170 h1         1 AG6       0.107700
     36 H112         4.5400    -1.0510     3.7210 hc         1 AG6       0.045200
     37 H212         5.8860    -0.0360     3.2440 hc         1 AG6       0.045200
     38 H113         4.5130     2.0010     3.5370 hc         1 AG6       0.052200
     39 H213         3.1190     1.0410     3.9760 hc         1 AG6       0.052200
     40 H114         4.2480     1.9140     6.0140 hc         1 AG6       0.029700
     41 H214         4.3480     0.1560     5.9830 hc         1 AG6       0.029700
     42 H314         5.7510     1.1260     5.5450 hc         1 AG6       0.029700
     43 H24         -1.4200    -2.0660    -1.4960 ha         1 AG6       0.131000
     44 H25         -3.7220    -2.8760    -1.2020 ha         1 AG6       0.129000
     45 H27         -4.4270    -3.8750     0.9520 ha         1 AG6       0.124000
     46 H28         -0.4960    -3.2380     2.5150 ha         1 AG6       0.131000
     47 H29A        -2.8030    -4.0490     2.8110 ha         1 AG6       0.129000
     48 H31          6.7550    -1.4830    -2.2690 ha         1 AG6       0.142000
     49 H32          8.8570     1.8280    -0.5220 ha         1 AG6       0.142000
     50 H33          8.1240    -1.2840    -4.2880 ha         1 AG6       0.131500
     51 H34         10.2380     2.0090    -2.5480 ha         1 AG6       0.131500
     52 H35          9.8760     0.4560    -4.4400 ha         1 AG6       0.128000
     53 N31         -3.4340     1.2750    -0.6590 ns         1 AG6      -0.525900
     54 C251        -1.7700     3.0780    -0.5100 c3         1 AG6      -0.057400
     55 H241        -1.6730     1.3090    -1.7200 h1         1 AG6       0.081700
     56 C261        -2.3970     3.9410    -1.5910 c3         1 AG6      -0.210400
     57 H251        -2.1430     3.3680     0.4770 hc         1 AG6       0.060200
     58 H26         -0.6900     3.2340    -0.4880 hc         1 AG6       0.060200
     59 H271        -3.4810     3.7970    -1.6080 hc         1 AG6       0.024200
     60 C271        -2.1080     5.4490    -1.4780 c          1 AG6       0.929600
     61 H281        -2.0480     3.6040    -2.5750 hc         1 AG6       0.024200
     62 O4          -2.7390     6.1820    -2.2670 o          1 AG6      -0.842800
     63 O51         -1.2720     5.8200    -0.6310 o          1 AG6      -0.842800
     64 H291        -3.9270     1.5540     0.1760 hn         1 AG6       0.338500
     65 C281        -4.0250     0.3850    -1.4780 c          1 AG6       0.755100
     66 O61         -5.2780     0.1400    -1.0740 os         1 AG6      -0.433900
     67 O71         -3.5190    -0.1170    -2.4610 o          1 AG6      -0.616000
     68 C291        -6.0690    -0.7440    -1.8640 c3         1 AG6       0.206700
     69 H311        -6.4070    -0.2370    -2.7720 h1         1 AG6       0.052700
     70 H321        -5.4820    -1.6110    -2.1740 h1         1 AG6       0.052700
     71 C301        -7.2380    -1.1810    -1.0320 ca         1 AG6      -0.087300
     72 C311        -8.5350    -1.0490    -1.5130 ca         1 AG6      -0.107500
     73 C321        -9.6170    -1.4900    -0.7600 ca         1 AG6      -0.135500
     74 C331        -9.4100    -2.0600     0.4870 ca         1 AG6      -0.128000
     75 C341        -8.1160    -2.1920     0.9770 ca         1 AG6      -0.135500
     76 C351        -7.0370    -1.7570     0.2220 ca         1 AG6      -0.107500
     77 H115         4.6050    -2.2260     1.1510 ha         1 AG6       0.115000
     78 H122         6.4930    -2.0620    -0.2110 ha         1 AG6       0.131000
     79 H351        -8.7070    -0.5980    -2.4830 ha         1 AG6       0.137000
     80 H36        -10.6220    -1.3810    -1.1480 ha         1 AG6       0.126500
     81 H37        -10.2520    -2.4000     1.0770 ha         1 AG6       0.124000
     82 H38         -7.9450    -2.6370     1.9490 ha         1 AG6       0.126500
     83 H39         -6.0340    -1.8660     0.6160 ha         1 AG6       0.137000
@<TRIPOS>BOND
     1     1     5 1   
     2     1     7 1   
     3     1    29 1   
     4     2     9 1   
     5     2    10 1   
     6     2    30 1   
     7     3     5 2   
     8     4     9 2   
     9     5    31 1   
    10     6    16 2   
    11     7     8 1   
    12     7     9 1   
    13     7    32 1   
    14     8    19 1   
    15     8    33 1   
    16     8    34 1   
    17    10    11 1   
    18    10    14 1   
    19    10    35 1   
    20    11    12 1   
    21    11    36 1   
    22    11    37 1   
    23    12    13 1   
    24    12    38 1   
    25    12    39 1   
    26    13    40 1   
    27    13    41 1   
    28    13    42 1   
    29    14    15 2   
    30    14    77 1   
    31    15    16 1   
    32    15    78 1   
    33    16    23 1   
    34    17    18 ar  
    35    17    19 ar  
    36    17    43 1   
    37    18    20 ar  
    38    18    44 1   
    39    19    21 ar  
    40    20    22 ar  
    41    20    45 1   
    42    21    22 ar  
    43    21    46 1   
    44    22    47 1   
    45    23    24 ar  
    46    23    25 ar  
    47    24    26 ar  
    48    24    48 1   
    49    25    27 ar  
    50    25    49 1   
    51    26    28 ar  
    52    26    50 1   
    53    27    28 ar  
    54    27    51 1   
    55    28    52 1   
    56    31    53 1   
    57    31    54 1   
    58    31    55 1   
    59    53    64 1   
    60    53    65 1   
    61    54    56 1   
    62    54    57 1   
    63    54    58 1   
    64    56    59 1   
    65    56    60 1   
    66    56    61 1   
    67    60    62 1   
    68    60    63 1   
    69    65    66 1   
    70    65    67 2   
    71    66    68 1   
    72    68    69 1   
    73    68    70 1   
    74    68    71 1   
    75    71    72 ar  
    76    71    76 ar  
    77    72    73 ar  
    78    72    79 1   
    79    73    74 ar  
    80    73    80 1   
    81    74    75 ar  
    82    74    81 1   
    83    75    76 ar  
    84    75    82 1   
    85    76    83 1   
@<TRIPOS>SUBSTRUCTURE
     1 AG6         1 TEMP              0 ****  ****    0 ROOT
