@<TRIPOS>MOLECULE
AG7
   84    86     1     0     0
SMALL
bcc


@<TRIPOS>ATOM
      1 C01         -1.6690     2.6480     0.1670 c          1 AG7       0.561100
      2 C02         -0.9220     1.6690    -0.6980 c3         1 AG7      -0.183400
      3 O03         -1.2280     3.0770     1.2060 o          1 AG7      -0.525100
      4 C04          0.0330     0.7590     0.0670 c3         1 AG7      -0.122700
      5 C05         -0.7500    -0.2760     0.8880 c3         1 AG7      -0.024100
      6 C06          0.1240    -1.2820     1.5870 ca         1 AG7      -0.095300
      7 C07          1.1940    -0.8800     2.3860 ca         1 AG7      -0.101000
      8 C08          2.0130    -1.8060     3.0150 ca         1 AG7      -0.166000
      9 C09          1.7400    -3.1510     2.8480 ca         1 AG7       0.127900
     10 C10          0.6850    -3.5910     2.0760 ca         1 AG7      -0.166000
     11 C11         -0.1130    -2.6460     1.4450 ca         1 AG7      -0.101000
     12 N12          2.2560     0.2810    -0.7440 ns         1 AG7      -0.572900
     13 C13          3.3240    -0.2510    -1.5690 c3         1 AG7       0.115700
     14 C14          4.3570     0.8430    -1.8410 c3         1 AG7      -0.078400
     15 C15          4.0030     1.9090    -2.8870 c5         1 AG7      -0.148700
     16 C16          2.6800     2.6160    -2.6190 c          1 AG7       0.707500
     17 N17          2.9630     3.7400    -1.9390 ns         1 AG7      -0.590900
     18 O18          1.5700     2.2480    -2.9700 o          1 AG7      -0.623500
     19 C19          3.9990    -1.4460    -0.8890 c3         1 AG7      -0.081400
     20 C20          3.0590    -2.6140    -0.6540 c3         1 AG7      -0.139400
     21 C21          3.7270    -3.7800     0.0210 c          1 AG7       0.643100
     22 O22          2.9720    -4.8700    -0.0270 os         1 AG7      -0.426900
     23 O23          4.8070    -3.7450     0.5570 o          1 AG7      -0.547000
     24 C47          0.9470     0.0470    -0.9180 c          1 AG7       0.681100
     25 O48          0.4940    -0.6870    -1.7850 o          1 AG7      -0.594100
     26 C50          3.4540    -6.0560     0.6200 c3         1 AG7       0.141400
     27 C53          2.3750    -7.1070     0.5200 c3         1 AG7      -0.095100
     28 C57         -3.0640     3.0400    -0.3300 c3         1 AG7       0.014700
     29 N58         -3.9280     2.0090     0.2130 ns         1 AG7      -0.563900
     30 C59         -4.5260     1.0540    -0.5200 c          1 AG7       0.594600
     31 O60         -4.4090     0.9190    -1.7250 o          1 AG7      -0.576100
     32 C78         -3.5020     4.4480     0.0710 c3         1 AG7      -0.065700
     33 C81         -2.5980     5.4770    -0.6010 c3         1 AG7      -0.089100
     34 F1           2.5310    -4.0550     3.4540 f          1 AG7      -0.144900
     35 C82         -4.9580     4.6900    -0.3150 c3         1 AG7      -0.089100
     36 C83          4.3780     4.0070    -1.7770 c5         1 AG7       0.101000
     37 C84          5.0000     3.0690    -2.8160 c5         1 AG7      -0.096400
     38 C1          -5.3810     0.1140     0.2540 cc         1 AG7       0.284800
     39 C2          -6.1230    -0.9720    -0.2620 cc         1 AG7      -0.346600
     40 C3          -6.7150    -1.5000     0.8360 cd         1 AG7       0.283000
     41 O4          -6.3520    -0.7830     1.9110 os         1 AG7      -0.104100
     42 N5          -5.5240     0.2170     1.5440 nd         1 AG7      -0.362300
     43 C4          -7.6240    -2.6470     1.0470 c3         1 AG7      -0.135400
     44 H2          -1.6210     1.0830    -1.2990 hc         1 AG7       0.096700
     45 H3          -0.3700     2.2850    -1.4200 hc         1 AG7       0.096700
     46 H27          0.6280     1.3730     0.7470 hc         1 AG7       0.061700
     47 H28         -1.3630     0.2520     1.6250 hc         1 AG7       0.062700
     48 H29         -1.4450    -0.8010     0.2290 hc         1 AG7       0.062700
     49 H30          1.4030     0.1730     2.5290 ha         1 AG7       0.136500
     50 H31          2.8460    -1.4870     3.6270 ha         1 AG7       0.150500
     51 H33          0.4890    -4.6490     1.9600 ha         1 AG7       0.150500
     52 H34         -0.9370    -2.9840     0.8300 ha         1 AG7       0.136500
     53 H49          2.5300     0.8700     0.0270 hn         1 AG7       0.306500
     54 H91          2.8770    -0.5770    -2.5100 h1         1 AG7       0.091700
     55 H35          4.6190     1.3210    -0.8900 hc         1 AG7       0.047700
     56 H36          5.2770     0.3690    -2.1890 hc         1 AG7       0.047700
     57 H94          3.9690     1.4420    -3.8730 hc         1 AG7       0.088700
     58 H39          2.2460     4.3650    -1.6060 hn         1 AG7       0.326500
     59 H191         4.8340    -1.7680    -1.5160 hc         1 AG7       0.053700
     60 H192         4.4330    -1.1140     0.0580 hc         1 AG7       0.053700
     61 H41          2.2170    -2.3140    -0.0230 hc         1 AG7       0.085200
     62 H42          2.6130    -2.9510    -1.5930 hc         1 AG7       0.085200
     63 H51          4.3720    -6.3920     0.1340 h1         1 AG7       0.050200
     64 H52          3.6880    -5.8410     1.6640 h1         1 AG7       0.050200
     65 H53          1.4590    -6.7920     1.0190 hc         1 AG7       0.044367
     66 H54          2.1400    -7.3480    -0.5170 hc         1 AG7       0.044367
     67 H56          2.7190    -8.0210     1.0050 hc         1 AG7       0.044367
     68 H77         -3.0940     2.9500    -1.4180 h1         1 AG7       0.097700
     69 H61         -4.1060     2.0270     1.2080 hn         1 AG7       0.339500
     70 H79         -3.4070     4.5490     1.1570 hc         1 AG7       0.065700
     71 H82         -2.6770     5.4080    -1.6890 hc         1 AG7       0.038533
     72 H84         -2.8870     6.4880    -0.3120 hc         1 AG7       0.038533
     73 H85         -1.5480     5.3540    -0.3360 hc         1 AG7       0.038533
     74 H86         -5.6420     4.0230     0.2080 hc         1 AG7       0.038533
     75 H87         -5.2490     5.7130    -0.0720 hc         1 AG7       0.038533
     76 H88         -5.1060     4.5510    -1.3890 hc         1 AG7       0.038533
     77 H89          4.6020     5.0550    -1.9720 h1         1 AG7       0.045200
     78 H90          4.7150     3.7770    -0.7620 h1         1 AG7       0.045200
     79 H92          6.0070     2.7540    -2.5440 hc         1 AG7       0.060200
     80 H93          5.0570     3.5770    -3.7810 hc         1 AG7       0.060200
     81 H8          -6.2020    -1.3040    -1.2830 ha         1 AG7       0.190000
     82 H5          -7.1590    -3.4080     1.6750 hc         1 AG7       0.065033
     83 H6          -8.5500    -2.3350     1.5300 hc         1 AG7       0.065033
     84 H7          -7.8700    -3.0990     0.0890 hc         1 AG7       0.065033
@<TRIPOS>BOND
     1     1     2 1   
     2     1     3 2   
     3     1    28 1   
     4     2     4 1   
     5     2    44 1   
     6     2    45 1   
     7     4     5 1   
     8     4    24 1   
     9     4    46 1   
    10     5     6 1   
    11     5    47 1   
    12     5    48 1   
    13     6     7 ar  
    14     6    11 ar  
    15     7     8 ar  
    16     7    49 1   
    17     8     9 ar  
    18     8    50 1   
    19     9    10 ar  
    20     9    34 1   
    21    10    11 ar  
    22    10    51 1   
    23    11    52 1   
    24    12    13 1   
    25    12    24 1   
    26    12    53 1   
    27    13    14 1   
    28    13    19 1   
    29    13    54 1   
    30    14    15 1   
    31    14    55 1   
    32    14    56 1   
    33    15    16 1   
    34    15    37 1   
    35    15    57 1   
    36    16    17 1   
    37    16    18 2   
    38    17    36 1   
    39    17    58 1   
    40    19    20 1   
    41    19    59 1   
    42    19    60 1   
    43    20    21 1   
    44    20    61 1   
    45    20    62 1   
    46    21    22 1   
    47    21    23 2   
    48    22    26 1   
    49    24    25 2   
    50    26    27 1   
    51    26    63 1   
    52    26    64 1   
    53    27    65 1   
    54    27    66 1   
    55    27    67 1   
    56    28    29 1   
    57    28    32 1   
    58    28    68 1   
    59    29    30 1   
    60    29    69 1   
    61    30    31 2   
    62    30    38 1   
    63    32    33 1   
    64    32    35 1   
    65    32    70 1   
    66    33    71 1   
    67    33    72 1   
    68    33    73 1   
    69    35    74 1   
    70    35    75 1   
    71    35    76 1   
    72    36    37 1   
    73    36    77 1   
    74    36    78 1   
    75    37    79 1   
    76    37    80 1   
    77    38    39 1   
    78    38    42 2   
    79    39    40 2   
    80    39    81 1   
    81    40    41 1   
    82    40    43 1   
    83    41    42 1   
    84    43    82 1   
    85    43    83 1   
    86    43    84 1   
@<TRIPOS>SUBSTRUCTURE
     1 AG7         1 TEMP              0 ****  ****    0 ROOT
