@<TRIPOS>MOLECULE
AG7
   84    86     1     0     0
SMALL
No Charge or Current Charge


@<TRIPOS>ATOM
      1 C01         -1.5820     3.1190     0.2530 c          1 AG7       0.561100
      2 C02         -0.6880     2.2650    -0.6620 c3         1 AG7      -0.183400
      3 O03         -1.1130     3.6930     1.2290 o          1 AG7      -0.525100
      4 C04         -0.0610     1.0140     0.0320 c3         1 AG7      -0.122700
      5 C05         -1.1360     0.0580     0.6240 c3         1 AG7      -0.024100
      6 C06         -0.5620    -1.1740     1.3120 ca         1 AG7      -0.095300
      7 C07          0.0730    -1.0560     2.5640 ca         1 AG7      -0.083000
      8 C08          0.5680    -2.2000     3.2160 ca         1 AG7      -0.148000
      9 C09          0.4270    -3.4620     2.6190 ca         1 AG7       0.163000
     10 C10         -0.2030    -3.5890     1.3720 ca         1 AG7      -0.148000
     11 C11         -0.6980    -2.4460     0.7180 ca         1 AG7      -0.083000
     12 N12          2.2220     0.3440    -0.6460 ns         1 AG7      -0.505900
     13 C13          3.2890    -0.3680    -1.3610 c3         1 AG7       0.115700
     14 C14          4.4030     0.5990    -1.8460 c3         1 AG7      -0.078400
     15 C15          4.0760     1.4960    -3.0800 c5         1 AG7      -0.148700
     16 C16          3.0240     2.5700    -2.7810 c          1 AG7       0.565000
     17 N17          3.7180     3.7210    -2.5230 ns         1 AG7      -0.523900
     18 O18          1.8200     2.5500    -2.9680 o          1 AG7      -0.548000
     19 C19          3.8760    -1.4890    -0.4660 c3         1 AG7      -0.081400
     20 C20          2.8200    -2.4480     0.1360 c3         1 AG7      -0.139400
     21 C21          3.4700    -3.6140     0.8800 c          1 AG7       0.594100
     22 O22          3.4520    -4.7640     0.1360 os         1 AG7      -0.450100
     23 O23          3.9410    -3.5220     2.0050 o          1 AG7      -0.498000
     24 C47          0.8760     0.2660    -0.9470 c          1 AG7       0.614100
     25 O48          0.4570    -0.3570    -1.9120 o          1 AG7      -0.594100
     26 C50          4.0130    -5.9520     0.7200 c3         1 AG7       0.164600
     27 C53          3.8570    -7.0860    -0.3050 c3         1 AG7      -0.095100
     28 C57         -3.0850     3.2310    -0.1460 c3         1 AG7       0.014700
     29 N58         -3.8220     2.1080     0.4760 ns         1 AG7      -0.496900
     30 C59         -4.5460     1.1470    -0.2080 c          1 AG7       0.527600
     31 O60         -4.6350     1.1560    -1.4310 o          1 AG7      -0.576100
     32 C78         -3.7350     4.6080     0.2020 c3         1 AG7      -0.065700
     33 C81         -3.0320     5.7790    -0.5290 c3         1 AG7      -0.089100
     34 F1           0.9020    -4.5610     3.2450 f          1 AG7      -0.180000
     35 C82         -5.2570     4.6360    -0.0870 c3         1 AG7      -0.089100
     36 C83          5.1710     3.5940    -2.6250 c5         1 AG7       0.101000
     37 C84          5.2880     2.3490    -3.5480 c5         1 AG7      -0.096400
     38 C1          -5.1720     0.1160     0.6820 cc         1 AG7       0.219500
     39 C2          -5.9320    -0.9510     0.1620 cc         1 AG7      -0.198000
     40 C3          -6.3200    -1.6720     1.2410 cd         1 AG7       0.173300
     41 O4          -5.8320    -1.0920     2.3820 os         1 AG7      -0.059700
     42 N5          -5.0780     0.0810     2.0100 nd         1 AG7      -0.362300
     43 C4          -7.1450    -2.9220     1.3400 c3         1 AG7      -0.135400
     44 H2          -1.2590     1.9420    -1.5410 hc         1 AG7       0.096700
     45 H3           0.1270     2.9130    -1.0010 hc         1 AG7       0.096700
     46 H27          0.5530     1.3870     0.8610 hc         1 AG7       0.061700
     47 H28         -1.7380     0.6050     1.3570 hc         1 AG7       0.062700
     48 H29         -1.8270    -0.2410    -0.1740 hc         1 AG7       0.062700
     49 H30          0.1760    -0.0810     3.0360 ha         1 AG7       0.118500
     50 H31          1.0580    -2.1110     4.1820 ha         1 AG7       0.132500
     51 H33         -0.3070    -4.5690     0.9140 ha         1 AG7       0.132500
     52 H34         -1.1890    -2.5510    -0.2470 ha         1 AG7       0.118500
     53 H49          2.4730     0.8870     0.1700 hn         1 AG7       0.306500
     54 H91          2.8620    -0.8540    -2.2500 h1         1 AG7       0.091700
     55 H35          4.7240     1.2180    -0.9980 hc         1 AG7       0.047700
     56 H36          5.2760    -0.0120    -2.1090 hc         1 AG7       0.047700
     57 H94          3.6930     0.8330    -3.8640 hc         1 AG7       0.088700
     58 H39          3.2040     4.5850    -2.4010 hn         1 AG7       0.326500
     59 H191         4.5890    -2.0770    -1.0590 hc         1 AG7       0.053700
     60 H192         4.4480    -1.0360     0.3540 hc         1 AG7       0.053700
     61 H41          2.2060    -1.8890     0.8470 hc         1 AG7       0.085200
     62 H42          2.2020    -2.8390    -0.6800 hc         1 AG7       0.085200
     63 H51          5.0770    -5.8100     0.9520 h1         1 AG7       0.050200
     64 H52          3.4850    -6.2200     1.6460 h1         1 AG7       0.050200
     65 H53          2.7990    -7.2530    -0.5390 hc         1 AG7       0.044367
     66 H54          4.3890    -6.8440    -1.2330 hc         1 AG7       0.044367
     67 H56          4.2720    -8.0190     0.0960 hc         1 AG7       0.044367
     68 H77         -3.1280     3.1200    -1.2370 h1         1 AG7       0.097700
     69 H61         -3.8240     2.0250     1.4890 hn         1 AG7       0.339500
     70 H79         -3.6140     4.7750     1.2810 hc         1 AG7       0.065700
     71 H82         -3.1080     5.6610    -1.6170 hc         1 AG7       0.038533
     72 H84         -3.4920     6.7370    -0.2570 hc         1 AG7       0.038533
     73 H85         -1.9700     5.8370    -0.2650 hc         1 AG7       0.038533
     74 H86         -5.7950     3.9060     0.5290 hc         1 AG7       0.038533
     75 H87         -5.6760     5.6240     0.1360 hc         1 AG7       0.038533
     76 H88         -5.4580     4.4100    -1.1420 hc         1 AG7       0.038533
     77 H89          5.6470     4.4790    -3.0670 h1         1 AG7       0.045200
     78 H90          5.6260     3.4120    -1.6410 h1         1 AG7       0.045200
     79 H92          6.2520     1.8370    -3.4550 hc         1 AG7       0.060200
     80 H93          5.1750     2.6390    -4.6000 hc         1 AG7       0.060200
     81 H8          -6.1480    -1.1420    -0.8830 ha         1 AG7       0.172000
     82 H5          -6.5660    -3.7370     1.7900 hc         1 AG7       0.065033
     83 H6          -8.0340    -2.7560     1.9600 hc         1 AG7       0.065033
     84 H7          -7.4800    -3.2540     0.3510 hc         1 AG7       0.065033
@<TRIPOS>BOND
     1     1     2 1   
     2     1     3 2   
     3     1    28 1   
     4     2     4 1   
     5     2    44 1   
     6     2    45 1   
     7     4     5 1   
     8     4    24 1   
     9     4    46 1   
    10     5     6 1   
    11     5    47 1   
    12     5    48 1   
    13     6     7 ar  
    14     6    11 ar  
    15     7     8 ar  
    16     7    49 1   
    17     8     9 ar  
    18     8    50 1   
    19     9    10 ar  
    20     9    34 1   
    21    10    11 ar  
    22    10    51 1   
    23    11    52 1   
    24    12    13 1   
    25    12    24 1   
    26    12    53 1   
    27    13    14 1   
    28    13    19 1   
    29    13    54 1   
    30    14    15 1   
    31    14    55 1   
    32    14    56 1   
    33    15    16 1   
    34    15    37 1   
    35    15    57 1   
    36    16    17 1   
    37    16    18 2   
    38    17    36 1   
    39    17    58 1   
    40    19    20 1   
    41    19    59 1   
    42    19    60 1   
    43    20    21 1   
    44    20    61 1   
    45    20    62 1   
    46    21    22 1   
    47    21    23 2   
    48    22    26 1   
    49    24    25 2   
    50    26    27 1   
    51    26    63 1   
    52    26    64 1   
    53    27    65 1   
    54    27    66 1   
    55    27    67 1   
    56    28    29 1   
    57    28    32 1   
    58    28    68 1   
    59    29    30 1   
    60    29    69 1   
    61    30    31 2   
    62    30    38 1   
    63    32    33 1   
    64    32    35 1   
    65    32    70 1   
    66    33    71 1   
    67    33    72 1   
    68    33    73 1   
    69    35    74 1   
    70    35    75 1   
    71    35    76 1   
    72    36    37 1   
    73    36    77 1   
    74    36    78 1   
    75    37    79 1   
    76    37    80 1   
    77    38    39 1   
    78    38    42 2   
    79    39    40 2   
    80    39    81 1   
    81    40    41 1   
    82    40    43 1   
    83    41    42 1   
    84    43    82 1   
    85    43    83 1   
    86    43    84 1   
@<TRIPOS>SUBSTRUCTURE
     1 AG7         1 TEMP              0 ****  ****    0 ROOT
