@<TRIPOS>MOLECULE
AGA
   66    65     1     0     0
SMALL
No Charge or Current Charge


@<TRIPOS>ATOM
      1 O1           7.4530    -2.6580    -1.6860 oh         1 AGA      -0.649000
      2 C1           6.4540    -2.0440    -0.8540 c3         1 AGA       0.118600
      3 C2           5.3290    -1.4270    -1.7250 c3         1 AGA       0.159300
      4 O2           5.9340    -0.5280    -2.6780 oh         1 AGA      -0.641000
      5 C3           4.2720    -0.6890    -0.8440 c3         1 AGA       0.192600
      6 P1           1.9810    -1.0850    -2.1960 p5         1 AGA       1.388800
      7 O3           1.4060    -0.4870    -3.4360 o          1 AGA      -0.825500
      8 O4           2.3760    -2.5090    -2.4080 o          1 AGA      -0.825500
      9 O5           3.1910    -0.1680    -1.6430 os         1 AGA      -0.573400
     10 O6           0.9510    -0.9200    -0.9670 os         1 AGA      -0.571400
     11 C4           1.0050    -1.8150     0.1580 c3         1 AGA       0.226600
     12 C5          -0.1540    -1.5200     1.1570 c3         1 AGA       0.151300
     13 C6          -0.0350    -0.2120     2.0120 c3         1 AGA       0.151600
     14 O7           0.2280     0.9500     1.1920 os         1 AGA      -0.433100
     15 C7           1.5330     1.3070     0.9490 c          1 AGA       0.619100
     16 O8           2.5020     0.8170     1.5130 o          1 AGA      -0.495000
     17 C8           1.6280     2.5120     0.0120 c3         1 AGA      -0.143400
     18 C9           1.6660     3.8440     0.7990 c3         1 AGA      -0.062400
     19 C10          1.7530     5.0870    -0.1160 c3         1 AGA      -0.083400
     20 C11          1.8130     6.4140     0.6660 c3         1 AGA      -0.085100
     21 O9          -1.4110    -1.5440     0.4310 os         1 AGA      -0.402100
     22 C12         -2.5800    -1.7490     1.1200 c          1 AGA       0.595100
     23 O10         -2.6470    -1.9880     2.3190 o          1 AGA      -0.526000
     24 C13         -3.7900    -1.8120     0.1850 c3         1 AGA      -0.143400
     25 C14         -4.6370    -0.5160     0.2460 c3         1 AGA      -0.066400
     26 C15         -5.9330    -0.6170    -0.5900 c3         1 AGA      -0.077400
     27 C16         -6.8140     0.6520    -0.5280 c3         1 AGA      -0.074400
     28 C17         -8.1210     0.5090    -1.3410 c3         1 AGA      -0.076400
     29 C18         -9.0300     1.7570    -1.2730 c3         1 AGA      -0.075400
     30 C19        -10.3300     1.5980    -2.0870 c3         1 AGA      -0.088100
     31 HO1          8.1110    -3.0770    -1.0860 ho         1 AGA       0.425000
     32 H11          6.0150    -2.7900    -0.1780 h1         1 AGA       0.016200
     33 H12          6.9080    -1.2590    -0.2330 h1         1 AGA       0.016200
     34 H2           4.8390    -2.2580    -2.2490 h1         1 AGA       0.091700
     35 HO2          6.7930    -0.9490    -2.9020 ho         1 AGA       0.429000
     36 H31          3.8940    -1.3910    -0.0920 h1         1 AGA       0.022700
     37 H32          4.7630     0.1300    -0.3040 h1         1 AGA       0.022700
     38 H41          0.9120    -2.8560    -0.1790 h1         1 AGA       0.035700
     39 H42          1.9580    -1.7250     0.6920 h1         1 AGA       0.035700
     40 H5          -0.1400    -2.3560     1.8690 h1         1 AGA       0.048700
     41 H61         -0.9730    -0.0630     2.5610 h1         1 AGA       0.057200
     42 H62          0.7420    -0.3490     2.7770 h1         1 AGA       0.057200
     43 H81          2.5420     2.4210    -0.5850 hc         1 AGA       0.087200
     44 H82          0.7450     2.5240    -0.6380 hc         1 AGA       0.087200
     45 H91          0.7670     3.9180     1.4260 hc         1 AGA       0.044700
     46 H92          2.5290     3.8340     1.4770 hc         1 AGA       0.044700
     47 H101         2.6440     5.0090    -0.7520 hc         1 AGA       0.043200
     48 H102         0.8830     5.1080    -0.7860 hc         1 AGA       0.043200
     49 H111         0.9190     6.5390     1.2890 hc         1 AGA       0.024700
     50 H112         2.6970     6.4420     1.3160 hc         1 AGA       0.024700
     51 H113         1.8700     7.2630    -0.0260 hc         1 AGA       0.024700
     52 H131        -3.4440    -1.9360    -0.8480 hc         1 AGA       0.078200
     53 H132        -4.4170    -2.6610     0.4840 hc         1 AGA       0.078200
     54 H141        -4.9010    -0.3040     1.2910 hc         1 AGA       0.047700
     55 H142        -4.0340     0.3300    -0.1120 hc         1 AGA       0.047700
     56 H151        -5.6700    -0.8220    -1.6370 hc         1 AGA       0.039200
     57 H152        -6.5190    -1.4750    -0.2340 hc         1 AGA       0.039200
     58 H161        -7.0630     0.8680     0.5200 hc         1 AGA       0.036200
     59 H162        -6.2430     1.5090    -0.9070 hc         1 AGA       0.036200
     60 H171        -7.8700     0.3040    -2.3900 hc         1 AGA       0.037700
     61 H172        -8.6800    -0.3600    -0.9710 hc         1 AGA       0.037700
     62 H181        -9.2890     1.9640    -0.2270 hc         1 AGA       0.035200
     63 H182        -8.4800     2.6310    -1.6470 hc         1 AGA       0.035200
     64 H191       -10.9460     2.5020    -2.0070 hc         1 AGA       0.028700
     65 H192       -10.1060     1.4280    -3.1470 hc         1 AGA       0.028700
     66 H193       -10.9180     0.7490    -1.7160 hc         1 AGA       0.028700
@<TRIPOS>BOND
     1     1     2 1   
     2     1    31 1   
     3     2     3 1   
     4     2    32 1   
     5     2    33 1   
     6     3     4 1   
     7     3     5 1   
     8     3    34 1   
     9     4    35 1   
    10     5     9 1   
    11     5    36 1   
    12     5    37 1   
    13     6     7 1   
    14     6     8 1   
    15     6     9 1   
    16     6    10 1   
    17    10    11 1   
    18    11    12 1   
    19    11    38 1   
    20    11    39 1   
    21    12    13 1   
    22    12    21 1   
    23    12    40 1   
    24    13    14 1   
    25    13    41 1   
    26    13    42 1   
    27    14    15 1   
    28    15    16 2   
    29    15    17 1   
    30    17    18 1   
    31    17    43 1   
    32    17    44 1   
    33    18    19 1   
    34    18    45 1   
    35    18    46 1   
    36    19    20 1   
    37    19    47 1   
    38    19    48 1   
    39    20    49 1   
    40    20    50 1   
    41    20    51 1   
    42    21    22 1   
    43    22    23 2   
    44    22    24 1   
    45    24    25 1   
    46    24    52 1   
    47    24    53 1   
    48    25    26 1   
    49    25    54 1   
    50    25    55 1   
    51    26    27 1   
    52    26    56 1   
    53    26    57 1   
    54    27    28 1   
    55    27    58 1   
    56    27    59 1   
    57    28    29 1   
    58    28    60 1   
    59    28    61 1   
    60    29    30 1   
    61    29    62 1   
    62    29    63 1   
    63    30    64 1   
    64    30    65 1   
    65    30    66 1   
@<TRIPOS>SUBSTRUCTURE
     1 AGA         1 TEMP              0 ****  ****    0 ROOT
