@<TRIPOS>MOLECULE
AGA
   66    65     1     0     0
SMALL
bcc


@<TRIPOS>ATOM
      1 O1           5.5320    -0.0280    -4.2880 oh         1 AGA      -0.586800
      2 C1           5.4010    -0.7870    -3.1110 c3         1 AGA       0.095400
      3 C2           4.1060    -0.4040    -2.4120 c3         1 AGA       0.136100
      4 O2           4.0680     0.9650    -2.0800 oh         1 AGA      -0.578800
      5 C3           3.9000    -1.2990    -1.2010 c3         1 AGA       0.169400
      6 P1           2.1100    -2.0340     0.5380 p5         1 AGA       1.388800
      7 O3           1.4420    -3.1930    -0.1390 o          1 AGA      -0.825500
      8 O4           3.1480    -2.2950     1.5860 o          1 AGA      -0.825500
      9 O5           2.6700    -0.9820    -0.5870 os         1 AGA      -0.550200
     10 O6           0.9710    -0.9930     1.0990 os         1 AGA      -0.548200
     11 C4           0.2990    -1.3590     2.2800 c3         1 AGA       0.203400
     12 C5          -0.8440    -0.4050     2.5580 c3         1 AGA       0.128100
     13 C6          -0.4380     1.0170     2.8990 c3         1 AGA       0.128400
     14 O7           0.2170     1.6770     1.8220 os         1 AGA      -0.409900
     15 C7           1.5470     1.7840     1.8340 c          1 AGA       0.668100
     16 O8           2.2410     1.4060     2.7420 o          1 AGA      -0.544000
     17 C8           2.0520     2.4580     0.5900 c3         1 AGA      -0.143400
     18 C9           3.4080     3.1280     0.7780 c3         1 AGA      -0.062400
     19 C10          3.7700     4.0340    -0.3930 c3         1 AGA      -0.083400
     20 C11          5.1470     4.6620    -0.2350 c3         1 AGA      -0.085100
     21 O9          -1.7080    -0.4410     1.4170 os         1 AGA      -0.378900
     22 C12         -3.0100    -0.2110     1.5800 c          1 AGA       0.644100
     23 O10         -3.5100     0.0650     2.6410 o          1 AGA      -0.575000
     24 C13         -3.7550    -0.3560     0.2810 c3         1 AGA      -0.143400
     25 C14         -5.2380    -0.0450     0.3870 c3         1 AGA      -0.066400
     26 C15         -5.9610    -0.2610    -0.9360 c3         1 AGA      -0.077400
     27 C16         -7.4500     0.0440    -0.8520 c3         1 AGA      -0.074400
     28 C17         -8.1900    -0.2000    -2.1610 c3         1 AGA      -0.076400
     29 C18         -9.6800     0.1040    -2.0760 c3         1 AGA      -0.075400
     30 C19        -10.4130    -0.1530    -3.3860 c3         1 AGA      -0.088100
     31 HO1          6.3660    -0.2660    -4.7010 ho         1 AGA       0.386000
     32 H11          5.3780    -1.8640    -3.3250 h1         1 AGA       0.016200
     33 H12          6.2440    -0.6200    -2.4250 h1         1 AGA       0.016200
     34 H2           3.2750    -0.5620    -3.1070 h1         1 AGA       0.091700
     35 HO2          4.7510     1.1430    -1.4250 ho         1 AGA       0.390000
     36 H31          3.9260    -2.3440    -1.5340 h1         1 AGA       0.022700
     37 H32          4.7300    -1.1650    -0.4960 h1         1 AGA       0.022700
     38 H41         -0.1110    -2.3730     2.2080 h1         1 AGA       0.035700
     39 H42          0.9680    -1.3400     3.1470 h1         1 AGA       0.035700
     40 H5          -1.3640    -0.7910     3.4400 h1         1 AGA       0.048700
     41 H61         -1.3220     1.6110     3.1280 h1         1 AGA       0.057200
     42 H62          0.1860     0.9940     3.7940 h1         1 AGA       0.057200
     43 H81          2.1250     1.6910    -0.1880 hc         1 AGA       0.087200
     44 H82          1.3100     3.1810     0.2430 hc         1 AGA       0.087200
     45 H91          3.4060     3.7240     1.6960 hc         1 AGA       0.044700
     46 H92          4.1820     2.3660     0.9080 hc         1 AGA       0.044700
     47 H101         3.7270     3.4680    -1.3270 hc         1 AGA       0.043200
     48 H102         3.0160     4.8220    -0.4820 hc         1 AGA       0.043200
     49 H111         5.2090     5.2500     0.6830 hc         1 AGA       0.024700
     50 H112         5.9270     3.8990    -0.1890 hc         1 AGA       0.024700
     51 H113         5.3820     5.3250    -1.0690 hc         1 AGA       0.024700
     52 H131        -3.2770     0.2860    -0.4660 hc         1 AGA       0.078200
     53 H132        -3.6030    -1.3800    -0.0770 hc         1 AGA       0.078200
     54 H141        -5.6960    -0.6750     1.1540 hc         1 AGA       0.047700
     55 H142        -5.3770     0.9900     0.7140 hc         1 AGA       0.047700
     56 H151        -5.5040     0.3630    -1.7120 hc         1 AGA       0.039200
     57 H152        -5.8210    -1.2980    -1.2610 hc         1 AGA       0.039200
     58 H161        -7.9010    -0.5660    -0.0620 hc         1 AGA       0.036200
     59 H162        -7.5900     1.0860    -0.5440 hc         1 AGA       0.036200
     60 H171        -7.7390     0.4080    -2.9540 hc         1 AGA       0.037700
     61 H172        -8.0510    -1.2430    -2.4670 hc         1 AGA       0.037700
     62 H181       -10.1270    -0.4990    -1.2800 hc         1 AGA       0.035200
     63 H182        -9.8180     1.1480    -1.7770 hc         1 AGA       0.035200
     64 H191       -11.4750     0.0800    -3.3040 hc         1 AGA       0.028700
     65 H192       -10.0020     0.4560    -4.1940 hc         1 AGA       0.028700
     66 H193       -10.3260    -1.1990    -3.6870 hc         1 AGA       0.028700
@<TRIPOS>BOND
     1     1     2 1   
     2     1    31 1   
     3     2     3 1   
     4     2    32 1   
     5     2    33 1   
     6     3     4 1   
     7     3     5 1   
     8     3    34 1   
     9     4    35 1   
    10     5     9 1   
    11     5    36 1   
    12     5    37 1   
    13     6     7 1   
    14     6     8 1   
    15     6     9 1   
    16     6    10 1   
    17    10    11 1   
    18    11    12 1   
    19    11    38 1   
    20    11    39 1   
    21    12    13 1   
    22    12    21 1   
    23    12    40 1   
    24    13    14 1   
    25    13    41 1   
    26    13    42 1   
    27    14    15 1   
    28    15    16 2   
    29    15    17 1   
    30    17    18 1   
    31    17    43 1   
    32    17    44 1   
    33    18    19 1   
    34    18    45 1   
    35    18    46 1   
    36    19    20 1   
    37    19    47 1   
    38    19    48 1   
    39    20    49 1   
    40    20    50 1   
    41    20    51 1   
    42    21    22 1   
    43    22    23 2   
    44    22    24 1   
    45    24    25 1   
    46    24    52 1   
    47    24    53 1   
    48    25    26 1   
    49    25    54 1   
    50    25    55 1   
    51    26    27 1   
    52    26    56 1   
    53    26    57 1   
    54    27    28 1   
    55    27    58 1   
    56    27    59 1   
    57    28    29 1   
    58    28    60 1   
    59    28    61 1   
    60    29    30 1   
    61    29    62 1   
    62    29    63 1   
    63    30    64 1   
    64    30    65 1   
    65    30    66 1   
@<TRIPOS>SUBSTRUCTURE
     1 AGA         1 TEMP              0 ****  ****    0 ROOT
