@<TRIPOS>MOLECULE
AGB
   52    55     1     0     0
SMALL
No Charge or Current Charge


@<TRIPOS>ATOM
      1 C1          -1.0980     0.8510    -5.3770 c6         1 AGB      -0.055700
      2 C2          -1.9520    -0.4160    -5.0870 c6         1 AGB      -0.070733
      3 C3          -0.6320     1.4760    -4.0290 c6         1 AGB      -0.083067
      4 C4           0.1480     0.4550    -6.2170 c6         1 AGB      -0.070733
      5 C5           0.1530    -1.8370    -5.1220 c6         1 AGB      -0.070733
      6 C6          -1.1020    -1.4440    -4.2880 c6         1 AGB      -0.055700
      7 C7           1.0070    -0.5690    -5.4230 c6         1 AGB      -0.055700
      8 C8          -0.6500    -0.8040    -2.9420 c6         1 AGB      -0.083067
      9 C9           1.4680     0.0740    -4.0820 c6         1 AGB      -0.083067
     10 C10          0.2290     0.4600    -3.2110 c6         1 AGB       0.154400
     11 N1           1.5510     1.5020     0.0760 ns         1 AGB      -0.529900
     12 N2           0.6270     1.1250    -1.9590 ns         1 AGB      -0.527900
     13 O1           1.8600    -0.5160    -0.9330 o          1 AGB      -0.638100
     14 C11          2.2830     1.2260     1.3120 c3         1 AGB       0.166300
     15 C13          0.9080    -0.4890     2.5850 ca         1 AGB      -0.078500
     16 C14          1.3360     0.8450     2.4400 ca         1 AGB      -0.126300
     17 C15          0.8720     1.8210     3.3420 ca         1 AGB      -0.078500
     18 C16         -0.0060     1.4650     4.3810 ca         1 AGB      -0.147500
     19 C17         -0.4250     0.1330     4.5310 ca         1 AGB       0.296000
     20 C18          0.0300    -0.8400     3.6250 ca         1 AGB      -0.147500
     21 N3          -1.3000    -0.2030     5.5620 nu         1 AGB      -0.988200
     22 C19         -1.2400    -1.1930     6.4350 c2         1 AGB       0.818100
     23 N5          -2.4080    -1.3520     6.9950 nv         1 AGB      -1.023200
     24 H1          -1.7010     1.5820    -5.9330 hc         1 AGB       0.051367
     25 H21         -2.8530    -0.1450    -4.5190 hc         1 AGB       0.041867
     26 H22         -2.3020    -0.8620    -6.0280 hc         1 AGB       0.041867
     27 H31         -1.5080     1.7870    -3.4440 hc         1 AGB       0.050700
     28 H32         -0.0550     2.3900    -4.2260 hc         1 AGB       0.050700
     29 H41         -0.1630     0.0250    -7.1790 hc         1 AGB       0.041867
     30 H42          0.7450     1.3470    -6.4550 hc         1 AGB       0.041867
     31 H51          0.7530    -2.5780    -4.5770 hc         1 AGB       0.041867
     32 H52         -0.1540    -2.3180    -6.0620 hc         1 AGB       0.041867
     33 H6          -1.7050    -2.3400    -4.0850 hc         1 AGB       0.051367
     34 H7           1.8870    -0.8510    -6.0180 hc         1 AGB       0.051367
     35 H81         -0.0910    -1.5470    -2.3590 hc         1 AGB       0.050700
     36 H82         -1.5270    -0.5360    -2.3380 hc         1 AGB       0.050700
     37 H91          2.0840     0.9610    -4.2820 hc         1 AGB       0.050700
     38 H92          2.1130    -0.6340    -3.5450 hc         1 AGB       0.050700
     39 HN1          1.1110     2.4060    -0.0240 hn         1 AGB       0.302500
     40 HN2          0.3030     2.0720    -1.8240 hn         1 AGB       0.301500
     41 H111         2.8500     2.1240     1.5910 h1         1 AGB       0.063200
     42 H112         3.0100     0.4190     1.1450 h1         1 AGB       0.063200
     43 H15          1.1900     2.8570     3.2380 ha         1 AGB       0.113000
     44 H16         -0.3560     2.2280     5.0710 ha         1 AGB       0.123000
     45 H18         -0.3040    -1.8700     3.7200 ha         1 AGB       0.123000
     46 HN3         -1.7680     0.6030     5.9540 hn         1 AGB       0.489000
     47 HN4          0.4880    -1.4550     6.0120 hn         1 AGB       0.383400
     48 HN51        -2.3400    -1.6940     7.9430 hn         1 AGB       0.469000
     49 HN52        -3.0690    -0.6120     6.8280 hn         1 AGB       0.469000
     50 C12          1.3850     0.6060    -0.9420 c          1 AGB       0.653100
     51 H13          1.2500    -1.2510     1.8880 ha         1 AGB       0.113000
     52 N4          -0.2130    -1.8550     6.6420 n2         1 AGB      -0.897100
@<TRIPOS>BOND
     1     1     2 1   
     2     1     3 1   
     3     1     4 1   
     4     1    24 1   
     5     2     6 1   
     6     2    25 1   
     7     2    26 1   
     8     3    10 1   
     9     3    27 1   
    10     3    28 1   
    11     4     7 1   
    12     4    29 1   
    13     4    30 1   
    14     5     6 1   
    15     5     7 1   
    16     5    31 1   
    17     5    32 1   
    18     6     8 1   
    19     6    33 1   
    20     7     9 1   
    21     7    34 1   
    22     8    10 1   
    23     8    35 1   
    24     8    36 1   
    25     9    10 1   
    26     9    37 1   
    27     9    38 1   
    28    10    12 1   
    29    11    14 1   
    30    11    39 1   
    31    11    50 1   
    32    12    40 1   
    33    12    50 1   
    34    13    50 2   
    35    14    16 1   
    36    14    41 1   
    37    14    42 1   
    38    15    16 ar  
    39    15    20 ar  
    40    15    51 1   
    41    16    17 ar  
    42    17    18 ar  
    43    17    43 1   
    44    18    19 ar  
    45    18    44 1   
    46    19    20 ar  
    47    19    21 1   
    48    20    45 1   
    49    21    22 1   
    50    21    46 1   
    51    22    23 1   
    52    22    52 2   
    53    23    48 1   
    54    23    49 1   
    55    47    52 1   
@<TRIPOS>SUBSTRUCTURE
     1 AGB         1 TEMP              0 ****  ****    0 ROOT
