@<TRIPOS>MOLECULE
AGB
   52    55     1     0     0
SMALL
abcg2


@<TRIPOS>ATOM
      1 C1          -0.6620     1.1670    -5.4000 c6         1 AGB      -0.055700
      2 C2          -1.9910     0.4930    -5.0540 c6         1 AGB      -0.070733
      3 C3           0.0180     1.6320    -4.1120 c6         1 AGB      -0.083067
      4 C4           0.2450     0.1700    -6.1230 c6         1 AGB      -0.070733
      5 C5          -0.8190    -1.7050    -4.8590 c6         1 AGB      -0.070733
      6 C6          -1.7280    -0.7060    -4.1400 c6         1 AGB      -0.055700
      7 C7           0.5070    -1.0280    -5.2100 c6         1 AGB      -0.055700
      8 C8          -1.0510    -0.2280    -2.8530 c6         1 AGB      -0.083067
      9 C9           1.1940    -0.5500    -3.9270 c6         1 AGB      -0.083067
     10 C10          0.2900     0.4420    -3.1810 c6         1 AGB       0.154400
     11 N1           2.0770     1.0510    -0.0180 ns         1 AGB      -0.529900
     12 N2           0.9350     0.9930    -1.9960 ns         1 AGB      -0.527900
     13 O1           1.2870    -0.9220    -0.8050 o          1 AGB      -0.638100
     14 C11          2.5400     0.5100     1.2270 c3         1 AGB       0.166300
     15 C13          1.9000     0.0130     3.5990 ca         1 AGB      -0.078500
     16 C14          1.5100     0.4450     2.3340 ca         1 AGB      -0.126300
     17 C15          0.1810     0.8030     2.1530 ca         1 AGB      -0.078500
     18 C16         -0.7320     0.7100     3.1950 ca         1 AGB      -0.147500
     19 C17         -0.3360     0.2750     4.4570 ca         1 AGB       0.296000
     20 C18          1.0060    -0.0590     4.6540 ca         1 AGB      -0.147500
     21 N3          -1.2760     0.2620     5.4930 nu         1 AGB      -0.988200
     22 C19         -1.4530    -0.6800     6.4860 c2         1 AGB       0.818100
     23 N5          -0.6600    -1.7950     6.4080 nv         1 AGB      -1.023200
     24 H1          -0.8420     2.0350    -6.0400 hc         1 AGB       0.051367
     25 H21         -2.6550     1.2080    -4.5560 hc         1 AGB       0.041867
     26 H22         -2.5010     0.1700    -5.9670 hc         1 AGB       0.041867
     27 H31         -0.6170     2.3620    -3.5960 hc         1 AGB       0.050700
     28 H32          0.9640     2.1340    -4.3490 hc         1 AGB       0.050700
     29 H41         -0.2240    -0.1560    -7.0570 hc         1 AGB       0.041867
     30 H42          1.1910     0.6490    -6.3950 hc         1 AGB       0.041867
     31 H51         -0.6400    -2.5790    -4.2250 hc         1 AGB       0.041867
     32 H52         -1.3080    -2.0680    -5.7680 hc         1 AGB       0.041867
     33 H6          -2.6760    -1.1890    -3.8850 hc         1 AGB       0.051367
     34 H7           1.1610    -1.7420    -5.7200 hc         1 AGB       0.051367
     35 H81         -0.8950    -1.0680    -2.1730 hc         1 AGB       0.050700
     36 H82         -1.6930     0.4900    -2.3320 hc         1 AGB       0.050700
     37 H91          2.1420    -0.0560    -4.1680 hc         1 AGB       0.050700
     38 H92          1.4280    -1.4040    -3.2880 hc         1 AGB       0.050700
     39 HN1          2.0750     2.0540    -0.1110 hn         1 AGB       0.302500
     40 HN2          1.1250     1.9820    -2.0210 hn         1 AGB       0.301500
     41 H111         3.3810     1.1200     1.5610 h1         1 AGB       0.063200
     42 H112         2.9450    -0.4880     1.0540 h1         1 AGB       0.063200
     43 H15         -0.1640     1.1600     1.1920 ha         1 AGB       0.113000
     44 H16         -1.7670     0.9780     3.0210 ha         1 AGB       0.123000
     45 H18          1.3570    -0.3660     5.6290 ha         1 AGB       0.123000
     46 HN3         -2.0330     0.9190     5.3980 hn         1 AGB       0.489000
     47 HN4         -2.7110     0.3700     7.4460 hn         1 AGB       0.383400
     48 HN51        -0.9390    -2.5240     7.0440 hn         1 AGB       0.469000
     49 HN52        -0.4400    -2.1450     5.4880 hn         1 AGB       0.469000
     50 C12          1.4130     0.2910    -0.9400 c          1 AGB       0.653100
     51 H13          2.9360    -0.2540     3.7770 ha         1 AGB       0.113000
     52 N4          -2.2760    -0.5450     7.4580 n2         1 AGB      -0.897100
@<TRIPOS>BOND
     1     1     2 1   
     2     1     3 1   
     3     1     4 1   
     4     1    24 1   
     5     2     6 1   
     6     2    25 1   
     7     2    26 1   
     8     3    10 1   
     9     3    27 1   
    10     3    28 1   
    11     4     7 1   
    12     4    29 1   
    13     4    30 1   
    14     5     6 1   
    15     5     7 1   
    16     5    31 1   
    17     5    32 1   
    18     6     8 1   
    19     6    33 1   
    20     7     9 1   
    21     7    34 1   
    22     8    10 1   
    23     8    35 1   
    24     8    36 1   
    25     9    10 1   
    26     9    37 1   
    27     9    38 1   
    28    10    12 1   
    29    11    14 1   
    30    11    39 1   
    31    11    50 1   
    32    12    40 1   
    33    12    50 1   
    34    13    50 2   
    35    14    16 1   
    36    14    41 1   
    37    14    42 1   
    38    15    16 ar  
    39    15    20 ar  
    40    15    51 1   
    41    16    17 ar  
    42    17    18 ar  
    43    17    43 1   
    44    18    19 ar  
    45    18    44 1   
    46    19    20 ar  
    47    19    21 1   
    48    20    45 1   
    49    21    22 1   
    50    21    46 1   
    51    22    23 1   
    52    22    52 2   
    53    23    48 1   
    54    23    49 1   
    55    47    52 1   
@<TRIPOS>SUBSTRUCTURE
     1 AGB         1 TEMP              0 ****  ****    0 ROOT
