@<TRIPOS>MOLECULE
AGD
   26    27     1     0     0
SMALL
No Charge or Current Charge


@<TRIPOS>ATOM
      1 C2          -6.6230   -15.1590     5.3670 cc         1 AGD       0.712800
      2 C4          -8.0560   -16.8640     5.7300 cd         1 AGD       0.120400
      3 C5          -7.5990   -17.5320     4.6240 cc         1 AGD       0.080500
      4 C6          -6.5260   -16.9460     3.7820 c          1 AGD       0.523500
      5 N           -8.0700   -18.1380     9.1090 n8         1 AGD      -0.981200
      6 CA          -9.5200   -18.2760     8.7000 c3         1 AGD       0.008500
      7 N9          -9.0370   -17.6540     6.2870 na         1 AGD      -0.145500
      8 N3          -7.5710   -15.6230     6.1500 nd         1 AGD      -0.676100
      9 N2          -6.1020   -13.9900     5.6930 nv         1 AGD      -1.054200
     10 N1          -6.1100   -15.7430     4.2610 ns         1 AGD      -0.462400
     11 O6          -6.0420   -17.4440     2.7730 o          1 AGD      -0.546000
     12 N7          -8.2670   -18.7260     4.4630 nc         1 AGD      -0.627000
     13 C8          -9.1340   -18.7840     5.4770 cd         1 AGD       0.401400
     14 C          -10.5960   -18.0540     9.8360 c          1 AGD       0.728000
     15 O          -11.3080   -18.9980    10.1530 o          1 AGD      -0.717500
     16 OXT        -10.6430   -16.9630    10.3910 o          1 AGD      -0.717500
     17 HN1         -5.3980   -15.2650     3.7350 hn         1 AGD       0.309500
     18 HA          -9.6500   -19.3120     8.3580 h1         1 AGD       0.047700
     19 HN2         -5.1340   -13.8380     5.4400 hn         1 AGD       0.493000
     20 HN2A        -6.3640   -13.6680     6.6160 hn         1 AGD       0.493000
     21 H8          -9.8390   -19.5810     5.6830 h5         1 AGD       0.063100
     22 CB          -9.8450   -17.3630     7.4880 c3         1 AGD       0.032600
     23 HN          -7.4870   -18.0950     8.2640 hn         1 AGD       0.382000
     24 HB         -10.9030   -17.4870     7.2230 h1         1 AGD       0.076200
     25 HBA         -9.7020   -16.3120     7.7710 h1         1 AGD       0.076200
     26 HNA         -7.9350   -17.2140     9.5390 hn         1 AGD       0.382000
@<TRIPOS>BOND
     1     1     8 2   
     2     1     9 1   
     3     1    10 1   
     4     2     3 2   
     5     2     7 1   
     6     2     8 1   
     7     3     4 1   
     8     3    12 1   
     9     4    10 1   
    10     4    11 2   
    11     5     6 1   
    12     5    23 1   
    13     5    26 1   
    14     6    14 1   
    15     6    18 1   
    16     6    22 1   
    17     7    13 1   
    18     7    22 1   
    19     9    19 1   
    20     9    20 1   
    21    10    17 1   
    22    12    13 2   
    23    13    21 1   
    24    14    15 1   
    25    14    16 1   
    26    22    24 1   
    27    22    25 1   
@<TRIPOS>SUBSTRUCTURE
     1 AGD         1 TEMP              0 ****  ****    0 ROOT
