@<TRIPOS>MOLECULE
AGD
   26    27     1     0     0
SMALL
bcc


@<TRIPOS>ATOM
      1 C2          -6.7150   -15.2120     5.5320 cc         1 AGD       0.712800
      2 C4          -8.1110   -16.9210     5.7220 cd         1 AGD       0.105800
      3 C5          -7.6120   -17.6160     4.6340 cc         1 AGD       0.145800
      4 C6          -6.5270   -17.0550     3.9000 c          1 AGD       0.666000
      5 N           -8.0100   -17.9870     8.9460 n8         1 AGD      -0.870800
      6 CA          -9.4000   -18.2220     8.6230 c3         1 AGD       0.008500
      7 N9          -9.1180   -17.6890     6.2100 na         1 AGD      -0.166900
      8 N3          -7.7060   -15.7360     6.2060 nd         1 AGD      -0.676100
      9 N2          -6.2330   -14.0060     5.8770 nv         1 AGD      -0.943800
     10 N1          -6.1480   -15.8210     4.4470 ns         1 AGD      -0.529400
     11 O6          -5.9460   -17.5060     2.9280 o          1 AGD      -0.621500
     12 N7          -8.2930   -18.7910     4.4560 nc         1 AGD      -0.627000
     13 C8          -9.1740   -18.7990     5.4110 cd         1 AGD       0.401400
     14 C          -10.3460   -17.8910     9.8080 c          1 AGD       0.938600
     15 O          -11.5310   -18.2470     9.6520 o          1 AGD      -0.822800
     16 OXT         -9.8600   -17.2840    10.7780 o          1 AGD      -0.822800
     17 HN1         -5.3830   -15.3540     3.9760 hn         1 AGD       0.309500
     18 HA          -9.5140   -19.2900     8.3990 h1         1 AGD       0.047700
     19 HN2         -5.3450   -13.6840     5.5320 hn         1 AGD       0.437800
     20 HN2A        -6.5320   -13.6250     6.7590 hn         1 AGD       0.437800
     21 H8          -9.9020   -19.5780     5.5900 h5         1 AGD       0.063100
     22 CB          -9.9160   -17.4470     7.3970 c3         1 AGD       0.003300
     23 HN          -7.4200   -18.1460     8.1390 hn         1 AGD       0.326800
     24 HB         -10.9450   -17.7260     7.1790 h1         1 AGD       0.076200
     25 HBA         -9.8940   -16.3730     7.5890 h1         1 AGD       0.076200
     26 HNA         -7.8780   -17.0230     9.2230 hn         1 AGD       0.326800
@<TRIPOS>BOND
     1     1     8 2   
     2     1     9 1   
     3     1    10 1   
     4     2     3 2   
     5     2     7 1   
     6     2     8 1   
     7     3     4 1   
     8     3    12 1   
     9     4    10 1   
    10     4    11 2   
    11     5     6 1   
    12     5    23 1   
    13     5    26 1   
    14     6    14 1   
    15     6    18 1   
    16     6    22 1   
    17     7    13 1   
    18     7    22 1   
    19     9    19 1   
    20     9    20 1   
    21    10    17 1   
    22    12    13 2   
    23    13    21 1   
    24    14    15 1   
    25    14    16 1   
    26    22    24 1   
    27    22    25 1   
@<TRIPOS>SUBSTRUCTURE
     1 AGD         1 TEMP              0 ****  ****    0 ROOT
