@<TRIPOS>MOLECULE
AGE
   37    38     1     0     0
SMALL
No Charge or Current Charge


@<TRIPOS>ATOM
      1 N1          -1.3750     2.4210    -0.0090 na         1 AGE       0.048000
      2 C2           6.6030    -1.4180     0.0590 ca         1 AGE      -0.108000
      3 N2          -5.2430    -2.2400     0.5630 ns         1 AGE      -0.378400
      4 C4           4.4260    -1.2190     1.1300 ca         1 AGE      -0.096000
      5 C5           3.8460    -0.8550    -0.1000 ca         1 AGE      -0.069300
      6 C6           4.6540    -0.7750    -1.2510 ca         1 AGE      -0.096000
      7 O1          -6.4550    -2.9880     0.2990 oh         1 AGE      -0.431100
      8 O2          -5.7870    -0.4850    -0.8130 o          1 AGE      -0.577100
      9 O3           2.8110     1.7710     0.2940 o          1 AGE      -0.528100
     10 C1           6.0290    -1.0560    -1.1720 ca         1 AGE      -0.109000
     11 C3           5.8010    -1.5000     1.2100 ca         1 AGE      -0.109000
     12 C7           2.3540    -0.5520    -0.1870 c3         1 AGE      -0.129100
     13 C8           1.9650     0.9190     0.0470 c          1 AGE       0.612700
     14 C9           0.5220     1.2690    -0.0370 cc         1 AGE      -0.269600
     15 C10          0.0130     2.5290     0.1470 cd         1 AGE      -0.095000
     16 C11         -2.3230     3.5360     0.1230 c3         1 AGE       0.044900
     17 C12         -1.7240     1.0940    -0.3060 cd         1 AGE      -0.185800
     18 C13         -0.5500     0.3920    -0.3090 cc         1 AGE      -0.094000
     19 C14         -3.0660     0.5560    -0.5160 cf         1 AGE      -0.047200
     20 C15         -3.5690    -0.5730     0.0570 ce         1 AGE      -0.312200
     21 C16         -4.9600    -1.0670    -0.1240 c          1 AGE       0.604300
     22 H4           3.8120    -1.2830     2.0260 ha         1 AGE       0.109000
     23 H6           4.2170    -0.4950    -2.2070 ha         1 AGE       0.109000
     24 H1           6.6490    -0.9930    -2.0630 ha         1 AGE       0.111000
     25 H3           6.2440    -1.7800     2.1630 ha         1 AGE       0.111000
     26 H7           1.9190    -0.8610    -1.1440 hc         1 AGE       0.066200
     27 H7A          1.7620    -1.1640     0.5030 hc         1 AGE       0.066200
     28 H10          0.5090     3.4660     0.3750 h4         1 AGE       0.165000
     29 H11         -3.1320     3.2490     0.8050 h1         1 AGE       0.061033
     30 H11A        -1.8090     4.4180     0.5230 h1         1 AGE       0.061033
     31 H11B        -2.7430     3.7760    -0.8610 h1         1 AGE       0.061033
     32 H13         -0.4560    -0.6750    -0.4940 ha         1 AGE       0.135000
     33 H14         -3.7350     1.1770    -1.1190 ha         1 AGE       0.196000
     34 H15         -2.9220    -1.1660     0.6990 ha         1 AGE       0.182000
     35 H151        -4.4810    -2.7560     1.0000 hn         1 AGE       0.330500
     36 H16         -6.8310    -3.1450     1.1970 ho         1 AGE       0.449000
     37 H2           7.6680    -1.6360     0.1200 ha         1 AGE       0.111000
@<TRIPOS>BOND
     1     1    15 1   
     2     1    16 1   
     3     1    17 1   
     4     2    10 ar  
     5     2    11 ar  
     6     2    37 1   
     7     3     7 1   
     8     3    21 1   
     9     3    35 1   
    10     4     5 ar  
    11     4    11 ar  
    12     4    22 1   
    13     5     6 ar  
    14     5    12 1   
    15     6    10 ar  
    16     6    23 1   
    17     7    36 1   
    18     8    21 2   
    19     9    13 2   
    20    10    24 1   
    21    11    25 1   
    22    12    13 1   
    23    12    26 1   
    24    12    27 1   
    25    13    14 1   
    26    14    15 2   
    27    14    18 1   
    28    15    28 1   
    29    16    29 1   
    30    16    30 1   
    31    16    31 1   
    32    17    18 2   
    33    17    19 1   
    34    18    32 1   
    35    19    20 2   
    36    19    33 1   
    37    20    21 1   
    38    20    34 1   
@<TRIPOS>SUBSTRUCTURE
     1 AGE         1 TEMP              0 ****  ****    0 ROOT
