@<TRIPOS>MOLECULE
AGE
   37    38     1     0     0
SMALL
bcc


@<TRIPOS>ATOM
      1 N1          -1.3380     2.3330    -0.0150 na         1 AGE      -0.024100
      2 C2           6.5840    -1.2640     0.0300 ca         1 AGE      -0.126000
      3 N2          -5.2190    -2.3020     0.0910 ns         1 AGE      -0.445400
      4 C4           4.4950    -1.0120     1.1960 ca         1 AGE      -0.114000
      5 C5           3.8170    -0.8620    -0.0100 ca         1 AGE      -0.069300
      6 C6           4.5440    -0.9150    -1.1960 ca         1 AGE      -0.114000
      7 O1          -6.4900    -2.7450    -0.1180 oh         1 AGE      -0.392100
      8 O2          -5.8470    -0.1260     0.0510 o          1 AGE      -0.577100
      9 O3           2.8000     1.7210    -0.0370 o          1 AGE      -0.528100
     10 C1           5.9170    -1.1160    -1.1790 ca         1 AGE      -0.127000
     11 C3           5.8690    -1.2130     1.2190 ca         1 AGE      -0.127000
     12 C7           2.3380    -0.6270    -0.0300 c3         1 AGE      -0.129100
     13 C8           1.9610     0.8420    -0.0290 c          1 AGE       0.612700
     14 C9           0.5340     1.1440    -0.0180 cc         1 AGE      -0.269600
     15 C10         -0.0020     2.4250    -0.0290 cd         1 AGE      -0.062300
     16 C11         -2.2420     3.4660    -0.0210 c3         1 AGE       0.015600
     17 C12         -1.7140     1.0040     0.0050 cd         1 AGE      -0.135100
     18 C13         -0.5590     0.2510     0.0030 cc         1 AGE      -0.112000
     19 C14         -3.0940     0.6000     0.0220 cf         1 AGE       0.002800
     20 C15         -3.5240    -0.6690     0.0410 ce         1 AGE      -0.262200
     21 C16         -4.9660    -0.9720     0.0480 c          1 AGE       0.671300
     22 H4           3.9420    -0.9750     2.1270 ha         1 AGE       0.127000
     23 H6           4.0290    -0.8030    -2.1440 ha         1 AGE       0.127000
     24 H1           6.4680    -1.1600    -2.1100 ha         1 AGE       0.129000
     25 H3           6.3800    -1.3330     2.1660 ha         1 AGE       0.129000
     26 H7           1.8830    -1.0910    -0.9110 hc         1 AGE       0.066200
     27 H7A          1.8580    -1.1030     0.8320 hc         1 AGE       0.066200
     28 H10          0.4940     3.3820    -0.0460 h4         1 AGE       0.183000
     29 H11         -2.8640     3.4690     0.8720 h1         1 AGE       0.061033
     30 H11A        -1.6560     4.3800    -0.0350 h1         1 AGE       0.061033
     31 H11B        -2.8780     3.4490    -0.9030 h1         1 AGE       0.061033
     32 H13         -0.5150    -0.8280     0.0160 ha         1 AGE       0.153000
     33 H14         -3.8420     1.3850     0.0180 ha         1 AGE       0.146000
     34 H15         -2.8220    -1.4960     0.0480 ha         1 AGE       0.132000
     35 H151        -4.5040    -2.9810    -0.1280 hn         1 AGE       0.330500
     36 H16         -6.8490    -2.9470     0.7540 ho         1 AGE       0.410000
     37 H2           7.6550    -1.4220     0.0450 ha         1 AGE       0.129000
@<TRIPOS>BOND
     1     1    15 1   
     2     1    16 1   
     3     1    17 1   
     4     2    10 ar  
     5     2    11 ar  
     6     2    37 1   
     7     3     7 1   
     8     3    21 1   
     9     3    35 1   
    10     4     5 ar  
    11     4    11 ar  
    12     4    22 1   
    13     5     6 ar  
    14     5    12 1   
    15     6    10 ar  
    16     6    23 1   
    17     7    36 1   
    18     8    21 2   
    19     9    13 2   
    20    10    24 1   
    21    11    25 1   
    22    12    13 1   
    23    12    26 1   
    24    12    27 1   
    25    13    14 1   
    26    14    15 2   
    27    14    18 1   
    28    15    28 1   
    29    16    29 1   
    30    16    30 1   
    31    16    31 1   
    32    17    18 2   
    33    17    19 1   
    34    18    32 1   
    35    19    20 2   
    36    19    33 1   
    37    20    21 1   
    38    20    34 1   
@<TRIPOS>SUBSTRUCTURE
     1 AGE         1 TEMP              0 ****  ****    0 ROOT
