@<TRIPOS>MOLECULE
AGF
   55    56     1     0     0
SMALL
No Charge or Current Charge


@<TRIPOS>ATOM
      1 C1          47.3450    18.3150    40.5900 c          1 AGF       0.635100
      2 O1          47.8990    17.8710    41.5820 o          1 AGF      -0.607000
      3 O1A         47.9390    19.0720    39.6220 os         1 AGF      -0.418100
      4 CB1         49.3360    19.3620    39.7600 c3         1 AGF       0.235900
      5 CG1         49.7440    20.2850    38.6200 ca         1 AGF      -0.094300
      6 CDB         49.7070    21.6840    38.7910 ca         1 AGF      -0.072500
      7 CDL         50.1540    19.7500    37.3830 ca         1 AGF      -0.072500
      8 CEB         50.0850    22.5370    37.7390 ca         1 AGF      -0.105500
      9 CEL         50.5290    20.6040    36.3300 ca         1 AGF      -0.105500
     10 CZ1         50.4970    21.9970    36.5090 ca         1 AGF      -0.095000
     11 C2          43.7700    18.9290    39.5350 c          1 AGF       0.563100
     12 O2          43.2330    18.5140    40.5590 o          1 AGF      -0.709100
     13 CA2         45.2570    18.6540    39.1730 c3         1 AGF       0.031700
     14 CB2         45.3900    17.6550    38.0010 c3         1 AGF      -0.090100
     15 N2          46.0010    18.1620    40.3570 ns         1 AGF      -0.473900
     16 CA3         41.7420    20.3060    38.7920 c3         1 AGF      -0.257000
     17 P3          41.5220    21.9770    37.9870 p5         1 AGF       1.428400
     18 O1P         41.1810    21.8110    36.5410 o          1 AGF      -0.839500
     19 O2P         40.5150    22.8040    38.7220 o          1 AGF      -0.839500
     20 O3P         43.0220    22.5450    38.2050 os         1 AGF      -0.634400
     21 CA4         43.7960    23.0790    37.0960 c3         1 AGF       0.133300
     22 C4          44.2740    21.9800    36.0660 c          1 AGF       0.708000
     23 O41         44.4370    20.8290    36.4590 o          1 AGF      -0.738000
     24 O42         44.3970    22.2950    34.8880 o          1 AGF      -0.738000
     25 CB4         45.0050    23.7980    37.7410 c3         1 AGF      -0.041100
     26 CG4         45.8620    24.5630    36.7400 ca         1 AGF      -0.017300
     27 CDE         45.4370    25.8150    36.2540 ca         1 AGF      -0.095500
     28 CDO         47.0900    24.0300    36.3000 ca         1 AGF      -0.095500
     29 CEE         46.2320    26.5270    35.3380 ca         1 AGF      -0.123500
     30 CEO         47.8850    24.7420    35.3850 ca         1 AGF      -0.123500
     31 CZ4         47.4560    25.9910    34.9040 ca         1 AGF      -0.145000
     32 HB11        49.5380    19.8560    40.7200 h1         1 AGF       0.036200
     33 HB12        49.9300    18.4390    39.7210 h1         1 AGF       0.036200
     34 HD11        49.3850    22.1100    39.7390 ha         1 AGF       0.108500
     35 HD12        50.1800    18.6720    37.2360 ha         1 AGF       0.108500
     36 HE11        50.0550    23.6160    37.8760 ha         1 AGF       0.106500
     37 HE12        50.8450    20.1850    35.3770 ha         1 AGF       0.106500
     38 HZ1         50.7890    22.6570    35.6950 ha         1 AGF       0.101000
     39 HA2         45.6760    19.6210    38.8610 h1         1 AGF       0.121700
     40 HB21        46.4440    17.5010    37.7410 hc         1 AGF       0.041033
     41 HB22        44.9560    16.6840    38.2680 hc         1 AGF       0.041033
     42 HB23        44.8740    18.0280    37.1090 hc         1 AGF       0.041033
     43 HN2         45.4810    17.6670    41.0720 hn         1 AGF       0.312500
     44 HA31        40.9920    19.6270    38.3700 h1         1 AGF       0.040700
     45 HA32        41.5370    20.4420    39.8600 h1         1 AGF       0.040700
     46 HN3         43.6550    20.0340    37.8200 hn         1 AGF       0.393500
     47 HA4         43.2020    23.8210    36.5450 h1         1 AGF       0.032700
     48 HB41        44.6370    24.4940    38.5050 hc         1 AGF       0.041200
     49 HB42        45.6150    23.0570    38.2730 hc         1 AGF       0.041200
     50 HD41        44.4920    26.2380    36.5870 ha         1 AGF       0.115500
     51 HD42        47.4280    23.0630    36.6650 ha         1 AGF       0.115500
     52 HE41        45.8990    27.4930    34.9660 ha         1 AGF       0.084000
     53 HE42        48.8310    24.3260    35.0480 ha         1 AGF       0.084000
     54 HZ4         48.0710    26.5410    34.1960 ha         1 AGF       0.078000
     55 N3          43.0980    19.7100    38.6190 ns         1 AGF      -0.429900
@<TRIPOS>BOND
     1     1     2 2   
     2     1     3 1   
     3     1    15 1   
     4     3     4 1   
     5     4     5 1   
     6     4    32 1   
     7     4    33 1   
     8     5     6 ar  
     9     5     7 ar  
    10     6     8 ar  
    11     6    34 1   
    12     7     9 ar  
    13     7    35 1   
    14     8    10 ar  
    15     8    36 1   
    16     9    10 ar  
    17     9    37 1   
    18    10    38 1   
    19    11    12 2   
    20    11    13 1   
    21    11    55 1   
    22    13    14 1   
    23    13    15 1   
    24    13    39 1   
    25    14    40 1   
    26    14    41 1   
    27    14    42 1   
    28    15    43 1   
    29    16    17 1   
    30    16    44 1   
    31    16    45 1   
    32    16    55 1   
    33    17    18 1   
    34    17    19 1   
    35    17    20 1   
    36    20    21 1   
    37    21    22 1   
    38    21    25 1   
    39    21    47 1   
    40    22    23 1   
    41    22    24 1   
    42    25    26 1   
    43    25    48 1   
    44    25    49 1   
    45    26    27 ar  
    46    26    28 ar  
    47    27    29 ar  
    48    27    50 1   
    49    28    30 ar  
    50    28    51 1   
    51    29    31 ar  
    52    29    52 1   
    53    30    31 ar  
    54    30    53 1   
    55    31    54 1   
    56    46    55 1   
@<TRIPOS>SUBSTRUCTURE
     1 AGF         1 TEMP              0 ****  ****    0 ROOT
