@<TRIPOS>MOLECULE
AGF
   55    56     1     0     0
SMALL
abcg2


@<TRIPOS>ATOM
      1 C1          47.1230    17.2990    39.4570 c          1 AGF       0.635100
      2 O1          47.8460    16.5090    40.0470 o          1 AGF      -0.607000
      3 O1A         47.4400    18.5880    39.2330 os         1 AGF      -0.418100
      4 CB1         48.6990    19.0620    39.7690 c3         1 AGF       0.235900
      5 CG1         48.7220    20.5500    39.5850 ca         1 AGF      -0.094300
      6 CDB         47.9240    21.3660    40.3900 ca         1 AGF      -0.072500
      7 CDL         49.5130    21.1330    38.5990 ca         1 AGF      -0.072500
      8 CEB         47.9210    22.7430    40.2120 ca         1 AGF      -0.105500
      9 CEL         49.5170    22.5140    38.4220 ca         1 AGF      -0.105500
     10 CZ1         48.7220    23.3190    39.2290 ca         1 AGF      -0.095000
     11 C2          44.3860    18.8650    39.4590 c          1 AGF       0.563100
     12 O2          43.8330    18.3680    40.4470 o          1 AGF      -0.709100
     13 CA2         44.9930    17.9710    38.3650 c3         1 AGF       0.031700
     14 CB2         43.8780    17.2460    37.6190 c3         1 AGF      -0.090100
     15 N2          45.9150    16.9940    38.9310 ns         1 AGF      -0.473900
     16 CA3         43.8510    21.1870    40.0430 c3         1 AGF      -0.257000
     17 P3          43.1400    22.5490    39.0400 p5         1 AGF       1.428400
     18 O1P         42.2760    21.9950    37.9460 o          1 AGF      -0.839500
     19 O2P         42.5800    23.5580    40.0010 o          1 AGF      -0.839500
     20 O3P         44.5080    23.1750    38.3970 os         1 AGF      -0.634400
     21 CA4         44.7420    23.3030    36.9890 c3         1 AGF       0.133300
     22 C4          45.0540    21.9590    36.2900 c          1 AGF       0.708000
     23 O41         45.7610    21.1250    36.9220 o          1 AGF      -0.738000
     24 O42         44.6150    21.8240    35.1280 o          1 AGF      -0.738000
     25 CB4         45.9340    24.2680    36.8700 c3         1 AGF      -0.041100
     26 CG4         46.4220    24.4870    35.4650 ca         1 AGF      -0.017300
     27 CDE         45.7650    25.3670    34.6020 ca         1 AGF      -0.095500
     28 CDO         47.5370    23.7960    34.9880 ca         1 AGF      -0.095500
     29 CEE         46.2050    25.5460    33.2950 ca         1 AGF      -0.123500
     30 CEO         47.9820    23.9710    33.6820 ca         1 AGF      -0.123500
     31 CZ4         47.3160    24.8470    32.8300 ca         1 AGF      -0.145000
     32 HB11        48.7530    18.7850    40.8220 h1         1 AGF       0.036200
     33 HB12        49.5170    18.5800    39.2340 h1         1 AGF       0.036200
     34 HD11        47.3000    20.9160    41.1540 ha         1 AGF       0.108500
     35 HD12        50.1280    20.5030    37.9670 ha         1 AGF       0.108500
     36 HE11        47.2930    23.3660    40.8350 ha         1 AGF       0.106500
     37 HE12        50.1360    22.9570    37.6520 ha         1 AGF       0.106500
     38 HZ1         48.7210    24.3930    39.0900 ha         1 AGF       0.101000
     39 HA2         45.5450    18.5960    37.6650 h1         1 AGF       0.121700
     40 HB21        44.2960    16.6400    36.8140 hc         1 AGF       0.041033
     41 HB22        43.3230    16.5970    38.2990 hc         1 AGF       0.041033
     42 HB23        43.1860    17.9700    37.1890 hc         1 AGF       0.041033
     43 HN2         45.5560    16.0850    39.1770 hn         1 AGF       0.312500
     44 HA31        43.0460    20.7300    40.6180 h1         1 AGF       0.040700
     45 HA32        44.5630    21.6160    40.7560 h1         1 AGF       0.040700
     46 HN3         45.0010    20.4970    38.3960 hn         1 AGF       0.393500
     47 HA4         43.8630    23.7310    36.5080 h1         1 AGF       0.032700
     48 HB41        45.6300    25.2160    37.3180 hc         1 AGF       0.041200
     49 HB42        46.7400    23.8590    37.4780 hc         1 AGF       0.041200
     50 HD41        44.9010    25.9150    34.9600 ha         1 AGF       0.115500
     51 HD42        48.0550    23.1100    35.6480 ha         1 AGF       0.115500
     52 HE41        45.6840    26.2340    32.6400 ha         1 AGF       0.084000
     53 HE42        48.8500    23.4260    33.3300 ha         1 AGF       0.084000
     54 HZ4         47.6610    24.9860    31.8130 ha         1 AGF       0.078000
     55 N3          44.4800    20.1740    39.2210 ns         1 AGF      -0.429900
@<TRIPOS>BOND
     1     1     2 2   
     2     1     3 1   
     3     1    15 1   
     4     3     4 1   
     5     4     5 1   
     6     4    32 1   
     7     4    33 1   
     8     5     6 ar  
     9     5     7 ar  
    10     6     8 ar  
    11     6    34 1   
    12     7     9 ar  
    13     7    35 1   
    14     8    10 ar  
    15     8    36 1   
    16     9    10 ar  
    17     9    37 1   
    18    10    38 1   
    19    11    12 2   
    20    11    13 1   
    21    11    55 1   
    22    13    14 1   
    23    13    15 1   
    24    13    39 1   
    25    14    40 1   
    26    14    41 1   
    27    14    42 1   
    28    15    43 1   
    29    16    17 1   
    30    16    44 1   
    31    16    45 1   
    32    16    55 1   
    33    17    18 1   
    34    17    19 1   
    35    17    20 1   
    36    20    21 1   
    37    21    22 1   
    38    21    25 1   
    39    21    47 1   
    40    22    23 1   
    41    22    24 1   
    42    25    26 1   
    43    25    48 1   
    44    25    49 1   
    45    26    27 ar  
    46    26    28 ar  
    47    27    29 ar  
    48    27    50 1   
    49    28    30 ar  
    50    28    51 1   
    51    29    31 ar  
    52    29    52 1   
    53    30    31 ar  
    54    30    53 1   
    55    31    54 1   
    56    46    55 1   
@<TRIPOS>SUBSTRUCTURE
     1 AGF         1 TEMP              0 ****  ****    0 ROOT
