@<TRIPOS>MOLECULE
AGG
   65    66     1     0     0
SMALL
No Charge or Current Charge


@<TRIPOS>ATOM
      1 C1           5.1940    -0.5460    -8.3910 c3         1 AGG      -0.088100
      2 C2           3.7370    -0.5850    -7.8930 c3         1 AGG      -0.073400
      3 C3           3.5710    -0.0390    -6.4600 c3         1 AGG      -0.039400
      4 C4           2.1020    -0.0860    -5.9770 c3         1 AGG      -0.350400
      5 S1           1.8950     0.5300    -4.3010 s6         1 AGG       1.177100
      6 O1           2.4540    -0.4350    -3.3500 o          1 AGG      -0.565000
      7 O2           2.3020     1.9350    -4.2390 o          1 AGG      -0.565000
      8 N            0.2420     0.5330    -4.0630 n7         1 AGG      -0.830300
      9 CA          -0.5330    -0.7550    -3.9970 c3         1 AGG       0.050500
     10 CB          -1.8720    -0.5120    -3.2550 c3         1 AGG      -0.008100
     11 CG          -1.6880    -0.1130    -1.7920 ca         1 AGG      -0.083300
     12 CD1         -1.8930     1.2190    -1.3840 ca         1 AGG      -0.068000
     13 CE1         -1.7270     1.5790    -0.0350 ca         1 AGG      -0.172500
     14 CZ          -1.3580     0.6170     0.9190 ca         1 AGG       0.121100
     15 OH          -1.2110     1.0290     2.2270 os         1 AGG      -0.359100
     16 CE2         -1.1520    -0.7200     0.5130 ca         1 AGG      -0.172500
     17 CD2         -1.3180    -1.0790    -0.8370 ca         1 AGG      -0.068000
     18 C           -0.8220    -1.4090    -5.3960 c          1 AGG       0.701000
     19 O           -0.6100    -2.6050    -5.5360 o          1 AGG      -0.714000
     20 OXT         -1.1670    -0.6720    -6.3120 o          1 AGG      -0.714000
     21 C11         -0.8340     0.1210     3.2770 c3         1 AGG       0.170600
     22 C12         -0.7680     0.9240     4.5900 c3         1 AGG      -0.082400
     23 C13         -0.3720     0.0570     5.8060 c3         1 AGG      -0.074400
     24 C14         -0.3090     0.8620     7.1270 c3         1 AGG      -0.070400
     25 C15          0.1840     0.0640     8.3740 c6         1 AGG      -0.058700
     26 C16          0.3520     1.0000     9.6030 c6         1 AGG      -0.073400
     27 C17          0.8140     0.2130    10.8550 c6         1 AGG       0.159800
     28 N18         -0.1140    -0.9000    11.1640 n7         1 AGG      -0.861400
     29 C18         -0.2660    -1.8430    10.0310 c6         1 AGG       0.159800
     30 C19         -0.7540    -1.1190     8.7510 c6         1 AGG      -0.073400
     31 H11          5.2610    -0.9430    -9.4110 hc         1 AGG       0.024700
     32 H12          5.5750     0.4830    -8.3980 hc         1 AGG       0.024700
     33 H13          5.8410    -1.1510    -7.7440 hc         1 AGG       0.024700
     34 H21          3.3740    -1.6200    -7.9310 hc         1 AGG       0.041700
     35 H22          3.1100    -0.0010    -8.5790 hc         1 AGG       0.041700
     36 H31          4.2000    -0.6250    -5.7770 hc         1 AGG       0.045700
     37 H32          3.9360     0.9960    -6.4250 hc         1 AGG       0.045700
     38 H41          1.4660     0.5290    -6.6210 h1         1 AGG       0.104700
     39 H42          1.7430    -1.1190    -5.9750 h1         1 AGG       0.104700
     40 H           -0.0710     1.0390    -4.8910 hn         1 AGG       0.497000
     41 HA           0.0250    -1.4960    -3.4090 h1         1 AGG       0.059700
     42 HB1         -2.4520     0.2470    -3.7940 hc         1 AGG       0.055700
     43 HB2         -2.4690    -1.4320    -3.3020 hc         1 AGG       0.055700
     44 HD1         -2.1750     1.9760    -2.1110 ha         1 AGG       0.115500
     45 HE1         -1.8860     2.6090     0.2720 ha         1 AGG       0.107500
     46 HE2         -0.8660    -1.4890     1.2240 ha         1 AGG       0.107500
     47 HD2         -1.1580    -2.1110    -1.1410 ha         1 AGG       0.115500
     48 H111        -1.5740    -0.6840     3.3770 h1         1 AGG       0.029200
     49 H112         0.1470    -0.3250     3.0700 h1         1 AGG       0.029200
     50 H121        -0.0430     1.7390     4.4730 hc         1 AGG       0.051700
     51 H122        -1.7460     1.3840     4.7770 hc         1 AGG       0.051700
     52 H131        -1.0970    -0.7590     5.9060 hc         1 AGG       0.038200
     53 H132         0.6070    -0.4020     5.6170 hc         1 AGG       0.038200
     54 H141         0.3570     1.7190     6.9680 hc         1 AGG       0.039700
     55 H142        -1.3020     1.2830     7.3280 hc         1 AGG       0.039700
     56 H15          1.1720    -0.3430     8.1140 hc         1 AGG       0.040700
     57 H161         1.0830     1.7890     9.3800 hc         1 AGG       0.046450
     58 H162        -0.5980     1.5060     9.8220 hc         1 AGG       0.046450
     59 H171         1.8230    -0.1900    10.6830 h1         1 AGG       0.025700
     60 H172         0.8690     0.8930    11.7180 h1         1 AGG       0.025700
     61 H18          0.2470    -1.4160    11.9760 hn         1 AGG       0.404000
     62 H181         0.7010    -2.3280     9.8290 h1         1 AGG       0.025700
     63 H182        -0.9820    -2.6310    10.3050 h1         1 AGG       0.025700
     64 H191        -1.7780    -0.7520     8.9060 hc         1 AGG       0.046450
     65 H192        -0.8040    -1.8480     7.9310 hc         1 AGG       0.046450
@<TRIPOS>BOND
     1     1     2 1   
     2     1    31 1   
     3     1    32 1   
     4     1    33 1   
     5     2     3 1   
     6     2    34 1   
     7     2    35 1   
     8     3     4 1   
     9     3    36 1   
    10     3    37 1   
    11     4     5 1   
    12     4    38 1   
    13     4    39 1   
    14     5     6 2   
    15     5     7 2   
    16     5     8 1   
    17     8     9 1   
    18     8    40 1   
    19     9    10 1   
    20     9    18 1   
    21     9    41 1   
    22    10    11 1   
    23    10    42 1   
    24    10    43 1   
    25    11    12 ar  
    26    11    17 ar  
    27    12    13 ar  
    28    12    44 1   
    29    13    14 ar  
    30    13    45 1   
    31    14    15 1   
    32    14    16 ar  
    33    15    21 1   
    34    16    17 ar  
    35    16    46 1   
    36    17    47 1   
    37    18    19 1   
    38    18    20 1   
    39    21    22 1   
    40    21    48 1   
    41    21    49 1   
    42    22    23 1   
    43    22    50 1   
    44    22    51 1   
    45    23    24 1   
    46    23    52 1   
    47    23    53 1   
    48    24    25 1   
    49    24    54 1   
    50    24    55 1   
    51    25    26 1   
    52    25    30 1   
    53    25    56 1   
    54    26    27 1   
    55    26    57 1   
    56    26    58 1   
    57    27    28 1   
    58    27    59 1   
    59    27    60 1   
    60    28    29 1   
    61    28    61 1   
    62    29    30 1   
    63    29    62 1   
    64    29    63 1   
    65    30    64 1   
    66    30    65 1   
@<TRIPOS>SUBSTRUCTURE
     1 AGG         1 TEMP              0 ****  ****    0 ROOT
