@<TRIPOS>MOLECULE
AGG
   65    66     1     0     0
SMALL
bcc


@<TRIPOS>ATOM
      1 C1           5.3650    -0.2840    -7.3300 c3         1 AGG      -0.088100
      2 C2           3.8660    -0.4990    -7.1790 c3         1 AGG      -0.073400
      3 C3           3.3000     0.2190    -5.9580 c3         1 AGG      -0.039400
      4 C4           1.8000    -0.0060    -5.8330 c3         1 AGG      -0.239600
      5 S1           1.1150     0.8280    -4.4010 s6         1 AGG       1.207900
      6 O1           1.7060     0.2300    -3.2110 o          1 AGG      -0.635800
      7 O2           1.2600     2.2650    -4.6070 o          1 AGG      -0.635800
      8 N           -0.4940     0.5180    -4.3820 n7         1 AGG      -0.775100
      9 CA          -0.9720    -0.8440    -4.1610 c3         1 AGG       0.050500
     10 CB          -2.0860    -0.8330    -3.1040 c3         1 AGG      -0.008100
     11 CG          -1.6290    -0.3650    -1.7530 ca         1 AGG      -0.083300
     12 CD1         -1.5210     0.9910    -1.4410 ca         1 AGG      -0.086000
     13 CE1         -1.1130     1.4130    -0.1900 ca         1 AGG      -0.190500
     14 CZ          -0.7920     0.4810     0.8000 ca         1 AGG       0.121100
     15 OH          -0.4230     0.9800     1.9990 os         1 AGG      -0.335900
     16 CE2         -0.8790    -0.8760     0.5040 ca         1 AGG      -0.190500
     17 CD2         -1.2940    -1.2780    -0.7620 ca         1 AGG      -0.086000
     18 C           -1.4860    -1.4740    -5.4830 c          1 AGG       0.911600
     19 O           -1.8040    -2.6730    -5.4180 o          1 AGG      -0.819300
     20 OXT         -1.5480    -0.7230    -6.4750 o          1 AGG      -0.819300
     21 C11         -0.2670     0.0910     3.0920 c3         1 AGG       0.147400
     22 C12         -0.0650     0.9080     4.3500 c3         1 AGG      -0.082400
     23 C13          0.0480     0.0210     5.5850 c3         1 AGG      -0.074400
     24 C14          0.1490     0.8350     6.8700 c3         1 AGG      -0.070400
     25 C15          0.3300     0.0090     8.1400 c6         1 AGG      -0.058700
     26 C16          0.5020     0.9160     9.3590 c6         1 AGG      -0.073400
     27 C17          0.6310     0.1120    10.6440 c6         1 AGG       0.159800
     28 N18         -0.5300    -0.7450    10.8080 n7         1 AGG      -0.806200
     29 C18         -0.6460    -1.6950     9.7160 c6         1 AGG       0.159800
     30 C19         -0.8260    -0.9600     8.3960 c6         1 AGG      -0.073400
     31 H11          5.7540    -0.8170    -8.1980 hc         1 AGG       0.024700
     32 H12          5.6010     0.7740    -7.4570 hc         1 AGG       0.024700
     33 H13          5.9060    -0.6400    -6.4520 hc         1 AGG       0.024700
     34 H21          3.6530    -1.5690    -7.1000 hc         1 AGG       0.041700
     35 H22          3.3510    -0.1490    -8.0780 hc         1 AGG       0.041700
     36 H31          3.8040    -0.1410    -5.0580 hc         1 AGG       0.045700
     37 H32          3.5080     1.2880    -6.0360 hc         1 AGG       0.045700
     38 H41          1.2600     0.3720    -6.7020 h1         1 AGG       0.104700
     39 H42          1.5650    -1.0670    -5.7260 h1         1 AGG       0.104700
     40 H           -0.9440     0.9060    -5.2100 hn         1 AGG       0.441800
     41 HA          -0.1550    -1.4610    -3.7770 h1         1 AGG       0.059700
     42 HB1         -2.9040    -0.2020    -3.4660 hc         1 AGG       0.055700
     43 HB2         -2.4830    -1.8460    -3.0250 hc         1 AGG       0.055700
     44 HD1         -1.7730     1.7330    -2.1880 ha         1 AGG       0.133500
     45 HE1         -1.0480     2.4700     0.0360 ha         1 AGG       0.125500
     46 HE2         -0.6410    -1.6330     1.2400 ha         1 AGG       0.125500
     47 HD2         -1.3660    -2.3390    -0.9700 ha         1 AGG       0.133500
     48 H111        -1.1570    -0.5400     3.1970 h1         1 AGG       0.029200
     49 H112         0.5880    -0.5770     2.9260 h1         1 AGG       0.029200
     50 H121         0.8340     1.5260     4.2540 hc         1 AGG       0.051700
     51 H122        -0.9100     1.5920     4.4720 hc         1 AGG       0.051700
     52 H131        -0.8240    -0.6390     5.6300 hc         1 AGG       0.038200
     53 H132         0.9210    -0.6340     5.4930 hc         1 AGG       0.038200
     54 H141         0.9900     1.5320     6.7820 hc         1 AGG       0.039700
     55 H142        -0.7480     1.4570     6.9720 hc         1 AGG       0.039700
     56 H15          1.2470    -0.5890     8.0360 hc         1 AGG       0.040700
     57 H161         1.3810     1.5540     9.2340 hc         1 AGG       0.046450
     58 H162        -0.3650     1.5810     9.4400 hc         1 AGG       0.046450
     59 H171         1.5750    -0.4590    10.6130 h1         1 AGG       0.025700
     60 H172         0.6970     0.7840    11.5030 h1         1 AGG       0.025700
     61 H18         -0.4580    -1.2470    11.6840 hn         1 AGG       0.348800
     62 H181         0.2380    -2.3500     9.6350 h1         1 AGG       0.025700
     63 H182        -1.5040    -2.3450     9.9020 h1         1 AGG       0.025700
     64 H191        -1.7690    -0.4030     8.4140 hc         1 AGG       0.046450
     65 H192        -0.9060    -1.6950     7.5910 hc         1 AGG       0.046450
@<TRIPOS>BOND
     1     1     2 1   
     2     1    31 1   
     3     1    32 1   
     4     1    33 1   
     5     2     3 1   
     6     2    34 1   
     7     2    35 1   
     8     3     4 1   
     9     3    36 1   
    10     3    37 1   
    11     4     5 1   
    12     4    38 1   
    13     4    39 1   
    14     5     6 2   
    15     5     7 2   
    16     5     8 1   
    17     8     9 1   
    18     8    40 1   
    19     9    10 1   
    20     9    18 1   
    21     9    41 1   
    22    10    11 1   
    23    10    42 1   
    24    10    43 1   
    25    11    12 ar  
    26    11    17 ar  
    27    12    13 ar  
    28    12    44 1   
    29    13    14 ar  
    30    13    45 1   
    31    14    15 1   
    32    14    16 ar  
    33    15    21 1   
    34    16    17 ar  
    35    16    46 1   
    36    17    47 1   
    37    18    19 1   
    38    18    20 1   
    39    21    22 1   
    40    21    48 1   
    41    21    49 1   
    42    22    23 1   
    43    22    50 1   
    44    22    51 1   
    45    23    24 1   
    46    23    52 1   
    47    23    53 1   
    48    24    25 1   
    49    24    54 1   
    50    24    55 1   
    51    25    26 1   
    52    25    30 1   
    53    25    56 1   
    54    26    27 1   
    55    26    57 1   
    56    26    58 1   
    57    27    28 1   
    58    27    59 1   
    59    27    60 1   
    60    28    29 1   
    61    28    61 1   
    62    29    30 1   
    63    29    62 1   
    64    29    63 1   
    65    30    64 1   
    66    30    65 1   
@<TRIPOS>SUBSTRUCTURE
     1 AGG         1 TEMP              0 ****  ****    0 ROOT
