@<TRIPOS>MOLECULE
AGH
  159   159     1     0     0
SMALL
No Charge or Current Charge


@<TRIPOS>ATOM
      1 C1          29.6560    32.8180    61.6680 c3         1 AGH       0.134600
      2 C2          31.0230    33.0190    60.9570 c3         1 AGH       0.127700
      3 C3          31.6750    34.4010    61.3160 c3         1 AGH       0.172300
      4 C4          33.0670    34.7250    60.6710 c3         1 AGH       0.148300
      5 C5          34.2550    33.8450    61.1370 c3         1 AGH      -0.110400
      6 C6          35.6420    34.4300    60.7880 c3         1 AGH      -0.080400
      7 O3          30.7840    35.4550    60.9120 oh         1 AGH      -0.651000
      8 C18         45.2750    43.8040    60.1640 c3         1 AGH      -0.088100
      9 C17         43.8190    43.4470    60.5180 c3         1 AGH      -0.074400
     10 C16         43.4640    41.9760    60.2070 c3         1 AGH      -0.075400
     11 C15         42.0040    41.6180    60.5620 c3         1 AGH      -0.075400
     12 C14         41.6500    40.1480    60.2510 c3         1 AGH      -0.075400
     13 C13         40.1880    39.7910    60.6090 c3         1 AGH      -0.073400
     14 C12         39.7650    38.3530    60.2270 c3         1 AGH      -0.074400
     15 C11         40.4980    37.2380    61.0160 c3         1 AGH      -0.073400
     16 C10         40.0410    35.7990    60.6740 c3         1 AGH      -0.075400
     17 C9          38.5970    35.4620    61.1160 c3         1 AGH      -0.076400
     18 C8          38.2150    33.9880    60.8500 c3         1 AGH      -0.077400
     19 C7          36.8080    33.5800    61.3490 c3         1 AGH      -0.070400
     20 O4          32.9600    34.6950    59.2420 oh         1 AGH      -0.646000
     21 O1A         29.8860    32.7200    63.0900 os         1 AGH      -0.486000
     22 C1A         28.7270    32.4900    63.9150 c6         1 AGH       0.360300
     23 O6A         28.1530    31.1980    63.6170 os         1 AGH      -0.449000
     24 C5M         29.0150    30.0660    63.9230 c6         1 AGH       0.172300
     25 C6A         28.3120    28.7510    63.4460 c3         1 AGH       0.170600
     26 O5A         28.0000    28.7440    62.0380 oh         1 AGH      -0.713000
     27 C4A         29.3700    30.0300    65.4460 c6         1 AGH       0.147300
     28 O4A         28.2200    29.7980    66.2860 oh         1 AGH      -0.713000
     29 C3A         30.0200    31.3890    65.8390 c6         1 AGH       0.140300
     30 O3A         30.2780    31.4320    67.2570 oh         1 AGH      -0.673000
     31 C2A         29.1140    32.5920    65.4290 c6         1 AGH       0.114300
     32 O2A         29.7930    33.8380    65.7250 oh         1 AGH      -0.715000
     33 N2          31.8940    31.8560    61.2130 ns         1 AGH      -0.499900
     34 CAA         31.7380    30.6240    60.6200 c          1 AGH       0.605100
     35 OAA         30.8410    30.3910    59.8250 o          1 AGH      -0.600100
     36 CAB         32.7430    29.5530    61.0630 c3         1 AGH      -0.154400
     37 CAC         33.6620    29.0800    59.9100 c3         1 AGH      -0.066400
     38 CAD         34.6720    30.1440    59.4150 c3         1 AGH      -0.081400
     39 CAE         35.5180    29.6450    58.2190 c3         1 AGH      -0.073400
     40 CAF         36.7150    30.5470    57.8340 c3         1 AGH      -0.070400
     41 CAG         36.3690    32.0280    57.5570 c3         1 AGH      -0.081400
     42 CAH         37.5620    32.8130    56.9640 c3         1 AGH      -0.078400
     43 CAI         37.3380    34.3400    56.9300 c3         1 AGH      -0.079400
     44 CAJ         38.4980    35.1190    56.2640 c3         1 AGH      -0.071400
     45 CAK         38.5230    36.6350    56.5910 c3         1 AGH      -0.073400
     46 CAL         37.1840    37.3890    56.4070 c3         1 AGH      -0.073400
     47 CAM         36.6340    37.3870    54.9590 c3         1 AGH      -0.075400
     48 CAN         35.2000    37.9550    54.8260 c3         1 AGH      -0.075400
     49 CAO         34.1290    37.0760    55.5130 c3         1 AGH      -0.077400
     50 CAP         32.6740    37.5040    55.2110 c3         1 AGH      -0.073400
     51 CAQ         31.6050    36.6830    55.9750 c3         1 AGH      -0.076400
     52 CAR         31.6670    35.1630    55.6970 c3         1 AGH      -0.075400
     53 CAS         30.5250    34.3560    56.3540 c3         1 AGH      -0.072400
     54 CAT         30.5930    32.8410    56.0490 c3         1 AGH      -0.067400
     55 CAU         31.7470    32.0940    56.7670 c3         1 AGH      -0.081400
     56 CAV         31.8670    30.6000    56.3840 c3         1 AGH      -0.071400
     57 CAW         32.2590    30.2800    54.9150 c3         1 AGH      -0.072400
     58 CAX         33.6550    30.7830    54.4590 c3         1 AGH      -0.072400
     59 CAY         33.6680    32.1910    53.8140 c3         1 AGH      -0.079400
     60 CAZ         35.0850    32.6770    53.4530 c3         1 AGH      -0.093100
     61 H11         28.9850    33.6560    61.4380 h1         1 AGH       0.058200
     62 H12         29.1830    31.9030    61.2890 h1         1 AGH       0.058200
     63 H2          30.8220    33.0400    59.8780 h1         1 AGH       0.110700
     64 H5          31.8050    34.4350    62.4060 h1         1 AGH       0.044700
     65 H6          33.3120    35.7500    60.9810 h1         1 AGH       0.015700
     66 H51         34.1940    33.7150    62.2250 hc         1 AGH       0.050700
     67 H52         34.1850    32.8500    60.6860 hc         1 AGH       0.050700
     68 H61         35.7370    34.5110    59.7000 hc         1 AGH       0.038200
     69 H62         35.7100    35.4470    61.1920 hc         1 AGH       0.038200
     70 HO3         31.0810    35.6980    60.0060 ho         1 AGH       0.442000
     71 H181        45.4790    44.8550    60.4010 hc         1 AGH       0.031367
     72 H182        45.9770    43.1820    60.7330 hc         1 AGH       0.031367
     73 H183        45.4640    43.6510    59.0950 hc         1 AGH       0.031367
     74 H171        43.6520    43.6440    61.5840 hc         1 AGH       0.036700
     75 H172        43.1440    44.1090    59.9600 hc         1 AGH       0.036700
     76 H161        43.6340    41.7820    59.1410 hc         1 AGH       0.036700
     77 H162        44.1420    41.3170    60.7640 hc         1 AGH       0.036700
     78 H151        41.8350    41.8110    61.6290 hc         1 AGH       0.036700
     79 H152        41.3270    42.2780    60.0050 hc         1 AGH       0.036700
     80 H141        41.8170    39.9550    59.1840 hc         1 AGH       0.037200
     81 H142        42.3350    39.4960    60.8070 hc         1 AGH       0.037200
     82 H131        40.0290    39.9410    61.6850 hc         1 AGH       0.036700
     83 H132        39.5200    40.4930    60.0950 hc         1 AGH       0.036700
     84 H121        38.6850    38.2650    60.3930 hc         1 AGH       0.037700
     85 H122        39.9320    38.2060    59.1530 hc         1 AGH       0.037700
     86 H111        41.5730    37.3040    60.8140 hc         1 AGH       0.038200
     87 H112        40.3710    37.4090    62.0920 hc         1 AGH       0.038200
     88 H101        40.1390    35.6340    59.5930 hc         1 AGH       0.037700
     89 H102        40.7290    35.0970    61.1600 hc         1 AGH       0.037700
     90 H91         38.4870    35.6750    62.1870 hc         1 AGH       0.037200
     91 H92         37.8980    36.1150    60.5810 hc         1 AGH       0.037200
     92 H81         38.2900    33.7840    59.7770 hc         1 AGH       0.041200
     93 H82         38.9520    33.3370    61.3360 hc         1 AGH       0.041200
     94 H71         36.7890    33.6280    62.4450 hc         1 AGH       0.038700
     95 H72         36.6450    32.5280    61.0810 hc         1 AGH       0.038700
     96 HO4         33.8540    34.8760    58.8860 ho         1 AGH       0.444000
     97 H1A         27.9790    33.2680    63.6990 h2         1 AGH       0.069700
     98 H5M         29.9460    30.1660    63.3460 h1         1 AGH       0.055700
     99 H6A1        28.9730    27.9080    63.6870 h1         1 AGH       0.035700
    100 H6A2        27.3920    28.6200    64.0310 h1         1 AGH       0.035700
    101 H5A         27.4830    27.9240    61.8620 ho         1 AGH       0.506000
    102 H4A         30.1130    29.2340    65.6070 h1         1 AGH       0.047700
    103 H1          28.4980    30.1340    67.1730 ho         1 AGH       0.521000
    104 H3A         30.9700    31.4740    65.2890 h1         1 AGH       0.060700
    105 H3          30.4390    32.3840    67.4580 ho         1 AGH       0.468000
    106 H2A         28.1810    32.5360    66.0080 h1         1 AGH       0.064700
    107 H4          30.3210    34.0520    64.9180 ho         1 AGH       0.511000
    108 HN2         32.6310    31.9440    61.8990 hn         1 AGH       0.307500
    109 HAB1        33.3610    29.9260    61.8890 hc         1 AGH       0.054700
    110 HAB2        32.1720    28.6850    61.4140 hc         1 AGH       0.054700
    111 HAC1        34.2210    28.2000    60.2510 hc         1 AGH       0.049200
    112 HAC2        33.0420    28.7450    59.0690 hc         1 AGH       0.049200
    113 HAD1        34.1290    31.0480    59.1140 hc         1 AGH       0.043200
    114 HAD2        35.3360    30.4210    60.2430 hc         1 AGH       0.043200
    115 HAE1        35.9100    28.6470    58.4520 hc         1 AGH       0.039200
    116 HAE2        34.8680    29.5210    57.3450 hc         1 AGH       0.039200
    117 HAF1        37.4630    30.5040    58.6360 hc         1 AGH       0.034700
    118 HAF2        37.1910    30.1190    56.9420 hc         1 AGH       0.034700
    119 HAG1        35.5170    32.0920    56.8690 hc         1 AGH       0.042700
    120 HAG2        36.0560    32.4980    58.4950 hc         1 AGH       0.042700
    121 HAH1        38.4610    32.6040    57.5570 hc         1 AGH       0.036200
    122 HAH2        37.7600    32.4510    55.9480 hc         1 AGH       0.036200
    123 HAI1        36.4020    34.5570    56.4000 hc         1 AGH       0.037700
    124 HAI2        37.2130    34.7040    57.9550 hc         1 AGH       0.037700
    125 HAJ1        39.4530    34.6900    56.5920 hc         1 AGH       0.037700
    126 HAJ2        38.4530    34.9720    55.1780 hc         1 AGH       0.037700
    127 HAK1        38.8350    36.7510    57.6350 hc         1 AGH       0.037200
    128 HAK2        39.2970    37.1190    55.9820 hc         1 AGH       0.037200
    129 HAL1        36.4500    36.9590    57.0960 hc         1 AGH       0.035200
    130 HAL2        37.3220    38.4290    56.7270 hc         1 AGH       0.035200
    131 HAM1        37.3100    37.9730    54.3250 hc         1 AGH       0.038700
    132 HAM2        36.6380    36.3670    54.5570 hc         1 AGH       0.038700
    133 HAN1        35.1640    38.9710    55.2370 hc         1 AGH       0.037200
    134 HAN2        34.9590    38.0360    53.7580 hc         1 AGH       0.037200
    135 HAO1        34.2780    36.0400    55.1840 hc         1 AGH       0.035200
    136 HAO2        34.2750    37.0940    56.5990 hc         1 AGH       0.035200
    137 HAP1        32.5520    38.5630    55.4680 hc         1 AGH       0.034200
    138 HAP2        32.4900    37.4180    54.1320 hc         1 AGH       0.034200
    139 HAQ1        31.7190    36.8560    57.0530 hc         1 AGH       0.042700
    140 HAQ2        30.6130    37.0590    55.6980 hc         1 AGH       0.042700
    141 HAR1        31.6460    34.9970    54.6130 hc         1 AGH       0.033200
    142 HAR2        32.6230    34.7770    56.0640 hc         1 AGH       0.033200
    143 HAS1        30.5380    34.5110    57.4400 hc         1 AGH       0.042700
    144 HAS2        29.5660    34.7430    55.9900 hc         1 AGH       0.042700
    145 HAT1        29.6430    32.3810    56.3470 hc         1 AGH       0.033200
    146 HAT2        30.6760    32.7070    54.9640 hc         1 AGH       0.033200
    147 HAU1        32.7080    32.5870    56.5980 hc         1 AGH       0.048700
    148 HAU2        31.5750    32.1580    57.8460 hc         1 AGH       0.048700
    149 HAV1        32.6020    30.1340    57.0490 hc         1 AGH       0.034200
    150 HAV2        30.9110    30.1070    56.6040 hc         1 AGH       0.034200
    151 HAW1        32.2520    29.1880    54.8130 hc         1 AGH       0.034700
    152 HAW2        31.4870    30.6430    54.2260 hc         1 AGH       0.034700
    153 HAX1        34.3480    30.7550    55.3070 hc         1 AGH       0.033700
    154 HAX2        34.0500    30.0740    53.7210 hc         1 AGH       0.033700
    155 HAY1        33.0540    32.1760    52.9050 hc         1 AGH       0.039700
    156 HAY2        33.2140    32.9260    54.4830 hc         1 AGH       0.039700
    157 HAZ1        35.0420    33.6710    52.9920 hc         1 AGH       0.030033
    158 HAZ2        35.7120    32.7450    54.3500 hc         1 AGH       0.030033
    159 HAZ3        35.5640    31.9890    52.7460 hc         1 AGH       0.030033
@<TRIPOS>BOND
     1     1     2 1   
     2     1    21 1   
     3     1    61 1   
     4     1    62 1   
     5     2     3 1   
     6     2    33 1   
     7     2    63 1   
     8     3     4 1   
     9     3     7 1   
    10     3    64 1   
    11     4     5 1   
    12     4    20 1   
    13     4    65 1   
    14     5     6 1   
    15     5    66 1   
    16     5    67 1   
    17     6    19 1   
    18     6    68 1   
    19     6    69 1   
    20     7    70 1   
    21     8     9 1   
    22     8    71 1   
    23     8    72 1   
    24     8    73 1   
    25     9    10 1   
    26     9    74 1   
    27     9    75 1   
    28    10    11 1   
    29    10    76 1   
    30    10    77 1   
    31    11    12 1   
    32    11    78 1   
    33    11    79 1   
    34    12    13 1   
    35    12    80 1   
    36    12    81 1   
    37    13    14 1   
    38    13    82 1   
    39    13    83 1   
    40    14    15 1   
    41    14    84 1   
    42    14    85 1   
    43    15    16 1   
    44    15    86 1   
    45    15    87 1   
    46    16    17 1   
    47    16    88 1   
    48    16    89 1   
    49    17    18 1   
    50    17    90 1   
    51    17    91 1   
    52    18    19 1   
    53    18    92 1   
    54    18    93 1   
    55    19    94 1   
    56    19    95 1   
    57    20    96 1   
    58    21    22 1   
    59    22    23 1   
    60    22    31 1   
    61    22    97 1   
    62    23    24 1   
    63    24    25 1   
    64    24    27 1   
    65    24    98 1   
    66    25    26 1   
    67    25    99 1   
    68    25   100 1   
    69    26   101 1   
    70    27    28 1   
    71    27    29 1   
    72    27   102 1   
    73    28   103 1   
    74    29    30 1   
    75    29    31 1   
    76    29   104 1   
    77    30   105 1   
    78    31    32 1   
    79    31   106 1   
    80    32   107 1   
    81    33    34 1   
    82    33   108 1   
    83    34    35 2   
    84    34    36 1   
    85    36    37 1   
    86    36   109 1   
    87    36   110 1   
    88    37    38 1   
    89    37   111 1   
    90    37   112 1   
    91    38    39 1   
    92    38   113 1   
    93    38   114 1   
    94    39    40 1   
    95    39   115 1   
    96    39   116 1   
    97    40    41 1   
    98    40   117 1   
    99    40   118 1   
   100    41    42 1   
   101    41   119 1   
   102    41   120 1   
   103    42    43 1   
   104    42   121 1   
   105    42   122 1   
   106    43    44 1   
   107    43   123 1   
   108    43   124 1   
   109    44    45 1   
   110    44   125 1   
   111    44   126 1   
   112    45    46 1   
   113    45   127 1   
   114    45   128 1   
   115    46    47 1   
   116    46   129 1   
   117    46   130 1   
   118    47    48 1   
   119    47   131 1   
   120    47   132 1   
   121    48    49 1   
   122    48   133 1   
   123    48   134 1   
   124    49    50 1   
   125    49   135 1   
   126    49   136 1   
   127    50    51 1   
   128    50   137 1   
   129    50   138 1   
   130    51    52 1   
   131    51   139 1   
   132    51   140 1   
   133    52    53 1   
   134    52   141 1   
   135    52   142 1   
   136    53    54 1   
   137    53   143 1   
   138    53   144 1   
   139    54    55 1   
   140    54   145 1   
   141    54   146 1   
   142    55    56 1   
   143    55   147 1   
   144    55   148 1   
   145    56    57 1   
   146    56   149 1   
   147    56   150 1   
   148    57    58 1   
   149    57   151 1   
   150    57   152 1   
   151    58    59 1   
   152    58   153 1   
   153    58   154 1   
   154    59    60 1   
   155    59   155 1   
   156    59   156 1   
   157    60   157 1   
   158    60   158 1   
   159    60   159 1   
@<TRIPOS>SUBSTRUCTURE
     1 AGH         1 TEMP              0 ****  ****    0 ROOT
