@<TRIPOS>MOLECULE
AGH
  159   159     1     0     0
SMALL
bcc


@<TRIPOS>ATOM
      1 C1          29.6080    33.1680    61.5820 c3         1 AGH       0.111400
      2 C2          30.9960    33.2370    60.9590 c3         1 AGH       0.127700
      3 C3          31.7850    34.4860    61.3750 c3         1 AGH       0.149100
      4 C4          33.1890    34.6130    60.7590 c3         1 AGH       0.125100
      5 C5          34.2930    33.8470    61.4890 c3         1 AGH      -0.110400
      6 C6          35.6810    34.3440    61.1050 c3         1 AGH      -0.080400
      7 O3          30.9730    35.5720    60.9790 oh         1 AGH      -0.588800
      8 C18         44.9960    43.2810    58.8060 c3         1 AGH      -0.088100
      9 C17         43.7360    43.0050    59.6140 c3         1 AGH      -0.074400
     10 C16         43.2230    41.5810    59.4410 c3         1 AGH      -0.075400
     11 C15         41.9690    41.2820    60.2510 c3         1 AGH      -0.075400
     12 C14         41.4600    39.8590    60.0600 c3         1 AGH      -0.075400
     13 C13         40.2160    39.5500    60.8850 c3         1 AGH      -0.073400
     14 C12         39.6230    38.1650    60.6320 c3         1 AGH      -0.074400
     15 C11         40.5160    37.0120    61.0810 c3         1 AGH      -0.073400
     16 C10         39.9670    35.6270    60.7460 c3         1 AGH      -0.075400
     17 C9          38.6190    35.3100    61.3830 c3         1 AGH      -0.076400
     18 C8          38.1910    33.8650    61.1570 c3         1 AGH      -0.077400
     19 C7          36.8100    33.5160    61.7080 c3         1 AGH      -0.070400
     20 O4          33.1210    34.2650    59.3910 oh         1 AGH      -0.583800
     21 O1A         29.7420    33.0740    62.9850 os         1 AGH      -0.439600
     22 C1A         28.5950    32.6550    63.6500 c6         1 AGH       0.313900
     23 O6A         28.2590    31.3280    63.3550 os         1 AGH      -0.402600
     24 C5M         29.2240    30.3670    63.7560 c6         1 AGH       0.149100
     25 C6A         28.7650    29.0100    63.2700 c3         1 AGH       0.147400
     26 O5A         28.8460    28.9910    61.8630 oh         1 AGH      -0.590800
     27 C4A         29.4460    30.4090    65.2600 c6         1 AGH       0.124100
     28 O4A         28.2690    30.0000    65.9120 oh         1 AGH      -0.590800
     29 C3A         29.8520    31.8270    65.6570 c6         1 AGH       0.117100
     30 O3A         29.9740    31.8600    67.0590 oh         1 AGH      -0.610800
     31 C2A         28.8120    32.8220    65.1570 c6         1 AGH       0.091100
     32 O2A         29.2470    34.1140    65.5010 oh         1 AGH      -0.592800
     33 N2          31.7400    32.0350    61.2590 ns         1 AGH      -0.566900
     34 CAA         31.6710    30.9220    60.5070 c          1 AGH       0.672100
     35 OAA         30.9820    30.8470    59.4980 o          1 AGH      -0.600100
     36 CAB         32.5220    29.7590    60.9680 c3         1 AGH      -0.154400
     37 CAC         33.4570    29.2790    59.8600 c3         1 AGH      -0.066400
     38 CAD         34.5250    30.2970    59.4790 c3         1 AGH      -0.081400
     39 CAE         35.4100    29.8070    58.3370 c3         1 AGH      -0.073400
     40 CAF         36.6270    30.6840    58.0600 c3         1 AGH      -0.070400
     41 CAG         36.3000    32.1460    57.7820 c3         1 AGH      -0.081400
     42 CAH         37.4870    32.9340    57.2380 c3         1 AGH      -0.078400
     43 CAI         37.2560    34.4390    57.2650 c3         1 AGH      -0.079400
     44 CAJ         38.3090    35.2410    56.5080 c3         1 AGH      -0.071400
     45 CAK         38.3210    36.7290    56.8640 c3         1 AGH      -0.073400
     46 CAL         36.9550    37.4100    56.8500 c3         1 AGH      -0.073400
     47 CAM         36.2670    37.4200    55.4880 c3         1 AGH      -0.075400
     48 CAN         34.8050    37.8600    55.5410 c3         1 AGH      -0.075400
     49 CAO         33.8950    36.8190    56.1880 c3         1 AGH      -0.077400
     50 CAP         32.4120    37.1580    56.1010 c3         1 AGH      -0.073400
     51 CAQ         31.4930    36.0820    56.6820 c3         1 AGH      -0.076400
     52 CAR         31.6840    34.7260    56.0140 c3         1 AGH      -0.075400
     53 CAS         30.6610    33.6670    56.4020 c3         1 AGH      -0.072400
     54 CAT         30.8870    32.3410    55.6770 c3         1 AGH      -0.067400
     55 CAU         32.1200    31.5740    56.1510 c3         1 AGH      -0.081400
     56 CAV         32.4280    30.3280    55.3250 c3         1 AGH      -0.071400
     57 CAW         32.9920    30.5730    53.9240 c3         1 AGH      -0.072400
     58 CAX         34.3500    31.2910    53.9040 c3         1 AGH      -0.072400
     59 CAY         34.2710    32.7910    53.6390 c3         1 AGH      -0.079400
     60 CAZ         35.6260    33.4800    53.7220 c3         1 AGH      -0.093100
     61 H11         29.0120    34.0450    61.3070 h1         1 AGH       0.058200
     62 H12         29.1030    32.2870    61.1730 h1         1 AGH       0.058200
     63 H2          30.8520    33.2760    59.8790 h1         1 AGH       0.110700
     64 H5          31.9160    34.4840    62.4670 h1         1 AGH       0.044700
     65 H6          33.4410    35.6810    60.8620 h1         1 AGH       0.015700
     66 H51         34.1600    33.9590    62.5700 hc         1 AGH       0.050700
     67 H52         34.2160    32.7790    61.2700 hc         1 AGH       0.050700
     68 H61         35.7870    34.3360    60.0150 hc         1 AGH       0.038200
     69 H62         35.7770    35.3910    61.4080 hc         1 AGH       0.038200
     70 HO3         31.3230    36.3770    61.3730 ho         1 AGH       0.403000
     71 H181        45.3450    44.3050    58.9410 hc         1 AGH       0.031367
     72 H182        45.8080    42.6140    59.1020 hc         1 AGH       0.031367
     73 H183        44.8210    43.1300    57.7390 hc         1 AGH       0.031367
     74 H171        43.9310    43.1930    60.6740 hc         1 AGH       0.036700
     75 H172        42.9510    43.7100    59.3220 hc         1 AGH       0.036700
     76 H161        43.0220    41.3960    58.3800 hc         1 AGH       0.036700
     77 H162        44.0130    40.8760    59.7240 hc         1 AGH       0.036700
     78 H151        42.1730    41.4560    61.3130 hc         1 AGH       0.036700
     79 H152        41.1800    41.9900    59.9750 hc         1 AGH       0.036700
     80 H141        41.2370    39.6940    58.9990 hc         1 AGH       0.037200
     81 H142        42.2620    39.1580    60.3120 hc         1 AGH       0.037200
     82 H131        40.4490    39.6580    61.9500 hc         1 AGH       0.036700
     83 H132        39.4530    40.3040    60.6660 hc         1 AGH       0.036700
     84 H121        38.6590    38.1000    61.1430 hc         1 AGH       0.037700
     85 H122        39.4040    38.0590    59.5640 hc         1 AGH       0.037700
     86 H111        41.5040    37.1100    60.6220 hc         1 AGH       0.038200
     87 H112        40.6780    37.0860    62.1620 hc         1 AGH       0.038200
     88 H101        39.8780    35.5250    59.6580 hc         1 AGH       0.037700
     89 H102        40.6980    34.8750    61.0600 hc         1 AGH       0.037700
     90 H91         38.6630    35.5130    62.4590 hc         1 AGH       0.037200
     91 H92         37.8620    35.9870    60.9770 hc         1 AGH       0.037200
     92 H81         38.2100    33.6510    60.0820 hc         1 AGH       0.041200
     93 H82         38.9340    33.1990    61.6050 hc         1 AGH       0.041200
     94 H71         36.8040    33.6290    62.7970 hc         1 AGH       0.038700
     95 H72         36.6150    32.4560    61.5130 hc         1 AGH       0.038700
     96 HO4         33.8230    34.7130    58.9110 ho         1 AGH       0.405000
     97 H1A         27.7240    33.2460    63.3280 h2         1 AGH       0.069700
     98 H5M         30.1940    30.5780    63.2860 h1         1 AGH       0.055700
     99 H6A1        29.4160    28.2510    63.7230 h1         1 AGH       0.035700
    100 H6A2        27.7450    28.8120    63.6190 h1         1 AGH       0.035700
    101 H5A         28.5250    28.1390    61.5540 ho         1 AGH       0.407000
    102 H4A         30.2820    29.7310    65.4920 h1         1 AGH       0.047700
    103 H1          28.3870    30.1460    66.8570 ho         1 AGH       0.422000
    104 H3A         30.8160    32.0470    65.1760 h1         1 AGH       0.060700
    105 H3          30.0600    32.7790    67.3350 ho         1 AGH       0.429000
    106 H2A         27.8540    32.5880    65.6390 h1         1 AGH       0.064700
    107 H4          28.4910    34.7080    65.4980 ho         1 AGH       0.412000
    108 HN2         32.2280    31.9860    62.1390 hn         1 AGH       0.307500
    109 HAB1        33.1000    30.0150    61.8590 hc         1 AGH       0.054700
    110 HAB2        31.8410    28.9520    61.2520 hc         1 AGH       0.054700
    111 HAC1        33.9410    28.3560    60.1900 hc         1 AGH       0.049200
    112 HAC2        32.8670    29.0140    58.9780 hc         1 AGH       0.049200
    113 HAD1        34.0550    31.2440    59.1960 hc         1 AGH       0.043200
    114 HAD2        35.1420    30.5200    60.3580 hc         1 AGH       0.043200
    115 HAE1        35.7520    28.7910    58.5570 hc         1 AGH       0.039200
    116 HAE2        34.8060    29.7310    57.4260 hc         1 AGH       0.039200
    117 HAF1        37.3120    30.6310    58.9130 hc         1 AGH       0.034700
    118 HAF2        37.1730    30.2670    57.2070 hc         1 AGH       0.034700
    119 HAG1        35.4680    32.2150    57.0700 hc         1 AGH       0.042700
    120 HAG2        35.9440    32.6220    58.7010 hc         1 AGH       0.042700
    121 HAH1        38.3850    32.6980    57.8210 hc         1 AGH       0.036200
    122 HAH2        37.7000    32.6030    56.2150 hc         1 AGH       0.036200
    123 HAI1        36.2630    34.6580    56.8560 hc         1 AGH       0.037700
    124 HAI2        37.2230    34.7700    58.3090 hc         1 AGH       0.037700
    125 HAJ1        39.3010    34.8310    56.7220 hc         1 AGH       0.037700
    126 HAJ2        38.1580    35.1040    55.4330 hc         1 AGH       0.037700
    127 HAK1        38.7430    36.8380    57.8680 hc         1 AGH       0.037200
    128 HAK2        39.0040    37.2560    56.1910 hc         1 AGH       0.037200
    129 HAL1        36.3130    36.9280    57.5930 hc         1 AGH       0.035200
    130 HAL2        37.0710    38.4430    57.1930 hc         1 AGH       0.035200
    131 HAM1        36.8270    38.0760    54.8150 hc         1 AGH       0.038700
    132 HAM2        36.3080    36.4230    55.0370 hc         1 AGH       0.038700
    133 HAN1        34.7200    38.8160    56.0690 hc         1 AGH       0.037200
    134 HAN2        34.4510    38.0440    54.5210 hc         1 AGH       0.037200
    135 HAO1        34.0830    35.8600    55.6950 hc         1 AGH       0.035200
    136 HAO2        34.1680    36.6730    57.2390 hc         1 AGH       0.035200
    137 HAP1        32.2250    38.1100    56.6090 hc         1 AGH       0.034200
    138 HAP2        32.1450    37.3190    55.0500 hc         1 AGH       0.034200
    139 HAQ1        31.6600    35.9850    57.7590 hc         1 AGH       0.042700
    140 HAQ2        30.4530    36.4040    56.5630 hc         1 AGH       0.042700
    141 HAR1        31.6550    34.8590    54.9250 hc         1 AGH       0.033200
    142 HAR2        32.6860    34.3520    56.2410 hc         1 AGH       0.033200
    143 HAS1        30.6860    33.5030    57.4850 hc         1 AGH       0.042700
    144 HAS2        29.6570    34.0390    56.1740 hc         1 AGH       0.042700
    145 HAT1        30.0120    31.6970    55.8120 hc         1 AGH       0.033200
    146 HAT2        30.9510    32.5380    54.6010 hc         1 AGH       0.033200
    147 HAU1        32.9990    32.2250    56.1720 hc         1 AGH       0.048700
    148 HAU2        31.9550    31.2740    57.1890 hc         1 AGH       0.048700
    149 HAV1        33.1470    29.7120    55.8750 hc         1 AGH       0.034200
    150 HAV2        31.5180    29.7240    55.2440 hc         1 AGH       0.034200
    151 HAW1        33.0910    29.6000    53.4360 hc         1 AGH       0.034700
    152 HAW2        32.2720    31.1310    53.3160 hc         1 AGH       0.034700
    153 HAX1        34.8680    31.1170    54.8550 hc         1 AGH       0.033700
    154 HAX2        34.9900    30.8450    53.1370 hc         1 AGH       0.033700
    155 HAY1        33.8360    32.9550    52.6480 hc         1 AGH       0.039700
    156 HAY2        33.5860    33.2640    54.3460 hc         1 AGH       0.039700
    157 HAZ1        35.5480    34.5470    53.5110 hc         1 AGH       0.030033
    158 HAZ2        36.0560    33.3740    54.7200 hc         1 AGH       0.030033
    159 HAZ3        36.3360    33.0520    53.0110 hc         1 AGH       0.030033
@<TRIPOS>BOND
     1     1     2 1   
     2     1    21 1   
     3     1    61 1   
     4     1    62 1   
     5     2     3 1   
     6     2    33 1   
     7     2    63 1   
     8     3     4 1   
     9     3     7 1   
    10     3    64 1   
    11     4     5 1   
    12     4    20 1   
    13     4    65 1   
    14     5     6 1   
    15     5    66 1   
    16     5    67 1   
    17     6    19 1   
    18     6    68 1   
    19     6    69 1   
    20     7    70 1   
    21     8     9 1   
    22     8    71 1   
    23     8    72 1   
    24     8    73 1   
    25     9    10 1   
    26     9    74 1   
    27     9    75 1   
    28    10    11 1   
    29    10    76 1   
    30    10    77 1   
    31    11    12 1   
    32    11    78 1   
    33    11    79 1   
    34    12    13 1   
    35    12    80 1   
    36    12    81 1   
    37    13    14 1   
    38    13    82 1   
    39    13    83 1   
    40    14    15 1   
    41    14    84 1   
    42    14    85 1   
    43    15    16 1   
    44    15    86 1   
    45    15    87 1   
    46    16    17 1   
    47    16    88 1   
    48    16    89 1   
    49    17    18 1   
    50    17    90 1   
    51    17    91 1   
    52    18    19 1   
    53    18    92 1   
    54    18    93 1   
    55    19    94 1   
    56    19    95 1   
    57    20    96 1   
    58    21    22 1   
    59    22    23 1   
    60    22    31 1   
    61    22    97 1   
    62    23    24 1   
    63    24    25 1   
    64    24    27 1   
    65    24    98 1   
    66    25    26 1   
    67    25    99 1   
    68    25   100 1   
    69    26   101 1   
    70    27    28 1   
    71    27    29 1   
    72    27   102 1   
    73    28   103 1   
    74    29    30 1   
    75    29    31 1   
    76    29   104 1   
    77    30   105 1   
    78    31    32 1   
    79    31   106 1   
    80    32   107 1   
    81    33    34 1   
    82    33   108 1   
    83    34    35 2   
    84    34    36 1   
    85    36    37 1   
    86    36   109 1   
    87    36   110 1   
    88    37    38 1   
    89    37   111 1   
    90    37   112 1   
    91    38    39 1   
    92    38   113 1   
    93    38   114 1   
    94    39    40 1   
    95    39   115 1   
    96    39   116 1   
    97    40    41 1   
    98    40   117 1   
    99    40   118 1   
   100    41    42 1   
   101    41   119 1   
   102    41   120 1   
   103    42    43 1   
   104    42   121 1   
   105    42   122 1   
   106    43    44 1   
   107    43   123 1   
   108    43   124 1   
   109    44    45 1   
   110    44   125 1   
   111    44   126 1   
   112    45    46 1   
   113    45   127 1   
   114    45   128 1   
   115    46    47 1   
   116    46   129 1   
   117    46   130 1   
   118    47    48 1   
   119    47   131 1   
   120    47   132 1   
   121    48    49 1   
   122    48   133 1   
   123    48   134 1   
   124    49    50 1   
   125    49   135 1   
   126    49   136 1   
   127    50    51 1   
   128    50   137 1   
   129    50   138 1   
   130    51    52 1   
   131    51   139 1   
   132    51   140 1   
   133    52    53 1   
   134    52   141 1   
   135    52   142 1   
   136    53    54 1   
   137    53   143 1   
   138    53   144 1   
   139    54    55 1   
   140    54   145 1   
   141    54   146 1   
   142    55    56 1   
   143    55   147 1   
   144    55   148 1   
   145    56    57 1   
   146    56   149 1   
   147    56   150 1   
   148    57    58 1   
   149    57   151 1   
   150    57   152 1   
   151    58    59 1   
   152    58   153 1   
   153    58   154 1   
   154    59    60 1   
   155    59   155 1   
   156    59   156 1   
   157    60   157 1   
   158    60   158 1   
   159    60   159 1   
@<TRIPOS>SUBSTRUCTURE
     1 AGH         1 TEMP              0 ****  ****    0 ROOT
