@<TRIPOS>MOLECULE
AGI
   30    32     1     0     0
SMALL
bcc


@<TRIPOS>ATOM
      1 CAG         -2.5550    -1.2180    -0.2800 ca         1 AGI      -0.045000
      2 CAE         -3.9000    -1.5300    -0.2890 ca         1 AGI      -0.206500
      3 CAM         -4.8480    -0.5530     0.0130 ca         1 AGI       0.170100
      4 OAB         -6.1390    -0.9060    -0.0060 oh         1 AGI      -0.485100
      5 CAF         -4.4240     0.7400     0.3220 ca         1 AGI      -0.206500
      6 CAH         -3.0770     1.0420     0.3270 ca         1 AGI      -0.045000
      7 CAP         -2.1160     0.0750     0.0220 ca         1 AGI      -0.122800
      8 CAQ         -0.6940     0.4130     0.0190 cc         1 AGI       0.231900
      9 OAL          0.0930    -0.6720     0.0360 os         1 AGI      -0.220200
     10 CAJ         -0.1760     1.6640    -0.0070 cd         1 AGI      -0.338200
     11 CAR          1.2440     1.8800     0.0030 c          1 AGI       0.615900
     12 OAA          1.7540     3.0130    -0.0070 o          1 AGI      -0.601100
     13 CAT          2.0510     0.6800     0.0120 ca         1 AGI      -0.379600
     14 CAS          1.4380    -0.5720     0.0210 ca         1 AGI       0.245100
     15 CAK          2.1530    -1.7550     0.0190 ca         1 AGI      -0.319000
     16 CAN          3.5430    -1.6730     0.0090 ca         1 AGI       0.242100
     17 OAC          4.3140    -2.7650     0.0040 oh         1 AGI      -0.480100
     18 CAI          4.2020    -0.4410     0.0020 ca         1 AGI      -0.264000
     19 CAO          3.4660     0.7300     0.0030 ca         1 AGI       0.282100
     20 OAD          4.0950     1.9000    -0.0060 oh         1 AGI      -0.498100
     21 HAG         -1.8490    -1.9990    -0.5240 ha         1 AGI       0.144500
     22 HAE         -4.2220    -2.5340    -0.5330 ha         1 AGI       0.146000
     23 HOAB        -6.7030    -0.1580     0.2240 ho         1 AGI       0.433000
     24 HAF         -5.1460     1.5090     0.5670 ha         1 AGI       0.146000
     25 HAH         -2.7820     2.0480     0.5930 ha         1 AGI       0.144500
     26 HAJ         -0.8310     2.5220    -0.0480 ha         1 AGI       0.166000
     27 HAK          1.6390    -2.7080     0.0270 ha         1 AGI       0.153000
     28 HOAC         3.7780    -3.5670     0.0030 ho         1 AGI       0.435000
     29 HAI          5.2840    -0.4040    -0.0070 ha         1 AGI       0.170000
     30 HOAD         3.4030     2.6070    -0.0050 ho         1 AGI       0.486000
@<TRIPOS>BOND
     1     1     2 ar  
     2     1     7 ar  
     3     1    21 1   
     4     2     3 ar  
     5     2    22 1   
     6     3     4 1   
     7     3     5 ar  
     8     4    23 1   
     9     5     6 ar  
    10     5    24 1   
    11     6     7 ar  
    12     6    25 1   
    13     7     8 1   
    14     8     9 1   
    15     8    10 2   
    16     9    14 1   
    17    10    11 1   
    18    10    26 1   
    19    11    12 2   
    20    11    13 1   
    21    13    14 ar  
    22    13    19 ar  
    23    14    15 ar  
    24    15    16 ar  
    25    15    27 1   
    26    16    17 1   
    27    16    18 ar  
    28    17    28 1   
    29    18    19 ar  
    30    18    29 1   
    31    19    20 1   
    32    20    30 1   
@<TRIPOS>SUBSTRUCTURE
     1 AGI         1 TEMP              0 ****  ****    0 ROOT
