@<TRIPOS>MOLECULE
AGI
   30    32     1     0     0
SMALL
No Charge or Current Charge


@<TRIPOS>ATOM
      1 CAG         -2.7040    -1.1500    -0.6500 ca         1 AGI      -0.027000
      2 CAE         -4.0890    -1.3840    -0.5980 ca         1 AGI      -0.188500
      3 CAM         -4.9330    -0.4750     0.0520 ca         1 AGI       0.170100
      4 OAB         -6.2730    -0.7140     0.0970 oh         1 AGI      -0.524100
      5 CAF         -4.3950     0.6710     0.6550 ca         1 AGI      -0.188500
      6 CAH         -3.0100     0.9100     0.6050 ca         1 AGI      -0.027000
      7 CAP         -2.1500     0.0040    -0.0550 ca         1 AGI      -0.122800
      8 CAQ         -0.7040     0.2360    -0.1100 cc         1 AGI       0.231900
      9 OAL          0.1310    -0.8660    -0.1790 os         1 AGI      -0.220200
     10 CAJ         -0.2110     1.5120    -0.2550 cd         1 AGI      -0.388200
     11 CAR          1.2000     1.8040    -0.2910 c          1 AGI       0.615900
     12 OAA          1.6360     2.9390    -0.4340 o          1 AGI      -0.601100
     13 CAT          2.0800     0.6420    -0.1080 ca         1 AGI      -0.379600
     14 CAS          1.4900    -0.6300    -0.0390 ca         1 AGI       0.245100
     15 CAK          2.3060    -1.7580     0.1270 ca         1 AGI      -0.301000
     16 CAN          3.6920    -1.6220     0.2410 ca         1 AGI       0.242100
     17 OAC          4.4750    -2.7200     0.4070 oh         1 AGI      -0.519100
     18 CAI          4.2770    -0.3580     0.1800 ca         1 AGI      -0.246000
     19 CAO          3.4750     0.7710     0.0030 ca         1 AGI       0.282100
     20 OAD          4.0630     1.9910    -0.0620 oh         1 AGI      -0.537100
     21 HAG         -2.0620    -1.8650    -1.1620 ha         1 AGI       0.126500
     22 HAE         -4.5060    -2.2740    -1.0630 ha         1 AGI       0.128000
     23 HOAB        -6.7020     0.0200     0.5870 ho         1 AGI       0.472000
     24 HAF         -5.0410     1.3790     1.1680 ha         1 AGI       0.128000
     25 HAH         -2.6090     1.7960     1.0930 ha         1 AGI       0.126500
     26 HAJ         -0.8500     2.3800    -0.3320 ha         1 AGI       0.216000
     27 HAK          1.8450    -2.7410     0.1650 ha         1 AGI       0.135000
     28 HOAC         3.8910    -3.5060     0.4250 ho         1 AGI       0.474000
     29 HAI          5.3540    -0.2520     0.2660 ha         1 AGI       0.152000
     30 HOAD         3.3190     2.6290    -0.2160 ho         1 AGI       0.525000
@<TRIPOS>BOND
     1     1     2 ar  
     2     1     7 ar  
     3     1    21 1   
     4     2     3 ar  
     5     2    22 1   
     6     3     4 1   
     7     3     5 ar  
     8     4    23 1   
     9     5     6 ar  
    10     5    24 1   
    11     6     7 ar  
    12     6    25 1   
    13     7     8 1   
    14     8     9 1   
    15     8    10 2   
    16     9    14 1   
    17    10    11 1   
    18    10    26 1   
    19    11    12 2   
    20    11    13 1   
    21    13    14 ar  
    22    13    19 ar  
    23    14    15 ar  
    24    15    16 ar  
    25    15    27 1   
    26    16    17 1   
    27    16    18 ar  
    28    17    28 1   
    29    18    19 ar  
    30    18    29 1   
    31    19    20 1   
    32    20    30 1   
@<TRIPOS>SUBSTRUCTURE
     1 AGI         1 TEMP              0 ****  ****    0 ROOT
