@<TRIPOS>MOLECULE
AGJ
   44    45     1     0     0
SMALL
No Charge or Current Charge


@<TRIPOS>ATOM
      1 O01          1.3350     1.3660     1.4590 o          1 AGJ      -0.574100
      2 C02          1.6320     0.8380     0.3940 c          1 AGJ       0.596100
      3 C03          2.7680     1.4510    -0.4570 c3         1 AGJ      -0.109100
      4 C04          4.1320     1.2530     0.2040 ca         1 AGJ      -0.070300
      5 C05          5.0120     2.3440     0.3520 ca         1 AGJ      -0.092500
      6 C06          6.2700     2.1670     0.9520 ca         1 AGJ      -0.108500
      7 C07          6.6600     0.8970     1.4080 ca         1 AGJ      -0.104000
      8 C08          5.7900    -0.1960     1.2620 ca         1 AGJ      -0.108500
      9 C09          4.5320    -0.0200     0.6610 ca         1 AGJ      -0.092500
     10 N10          0.9860    -0.3560    -0.0220 n          1 AGJ      -0.413800
     11 C11          0.9890    -0.8160    -1.4400 c3         1 AGJ       0.104000
     12 C12          2.1200    -1.8120    -1.8020 c3         1 AGJ       0.142600
     13 O13          2.0220    -3.0160    -1.0240 oh         1 AGJ      -0.658000
     14 C14          0.0320    -1.0420     0.8860 c3         1 AGJ       0.143300
     15 C15         -1.4320    -0.7080     0.6130 ca         1 AGJ      -0.061300
     16 C16         -1.9800     0.5120     1.0460 ca         1 AGJ      -0.114500
     17 C17         -3.3270     0.8200     0.7930 ca         1 AGJ      -0.065500
     18 C18         -4.1600    -0.0870     0.0990 ca         1 AGJ      -0.163600
     19 C19         -5.6100     0.2800    -0.1580 c          1 AGJ       0.609700
     20 O20         -6.1030     1.3150     0.2760 o          1 AGJ      -0.561100
     21 N21         -6.3630    -0.6270    -0.8990 ns         1 AGJ      -0.375400
     22 O22         -7.6730    -0.2720    -1.4110 oh         1 AGJ      -0.434100
     23 C23         -3.6030    -1.3170    -0.3310 ca         1 AGJ      -0.065500
     24 C24         -2.2540    -1.6190    -0.0740 ca         1 AGJ      -0.114500
     25 H1           2.8130     1.0280    -1.4630 hc         1 AGJ       0.060200
     26 H2           2.5620     2.5230    -0.5500 hc         1 AGJ       0.060200
     27 H3           4.7230     3.3330     0.0010 ha         1 AGJ       0.108000
     28 H4           6.9430     3.0150     1.0640 ha         1 AGJ       0.112000
     29 H5           7.6340     0.7600     1.8730 ha         1 AGJ       0.112000
     30 H6           6.0910    -1.1810     1.6130 ha         1 AGJ       0.112000
     31 H7           3.8700    -0.8760     0.5560 ha         1 AGJ       0.108000
     32 H8           0.0320    -1.3060    -1.6570 h1         1 AGJ       0.057200
     33 H9           1.0330     0.0510    -2.1110 h1         1 AGJ       0.057200
     34 H10          2.0460    -2.0500    -2.8710 h1         1 AGJ       0.025200
     35 H11          3.0940    -1.3330    -1.6390 h1         1 AGJ       0.025200
     36 H12          2.7530    -3.6060    -1.3110 ho         1 AGJ       0.449000
     37 H13          0.1760    -2.1260     0.7850 h1         1 AGJ       0.075700
     38 H14          0.2660    -0.8020     1.9310 h1         1 AGJ       0.075700
     39 H15         -1.3610     1.2270     1.5830 ha         1 AGJ       0.115500
     40 H16         -3.7210     1.7730     1.1400 ha         1 AGJ       0.123000
     41 H17         -5.8910    -1.3920    -1.3760 hn         1 AGJ       0.330500
     42 H18         -8.2430    -1.0290    -1.1350 ho         1 AGJ       0.448000
     43 H19         -4.2000    -2.0540    -0.8600 ha         1 AGJ       0.123000
     44 H20         -1.8480    -2.5700    -0.4120 ha         1 AGJ       0.115500
@<TRIPOS>BOND
     1     1     2 2   
     2     2     3 1   
     3     2    10 1   
     4     3     4 1   
     5     3    25 1   
     6     3    26 1   
     7     4     5 ar  
     8     4     9 ar  
     9     5     6 ar  
    10     5    27 1   
    11     6     7 ar  
    12     6    28 1   
    13     7     8 ar  
    14     7    29 1   
    15     8     9 ar  
    16     8    30 1   
    17     9    31 1   
    18    10    11 1   
    19    10    14 1   
    20    11    12 1   
    21    11    32 1   
    22    11    33 1   
    23    12    13 1   
    24    12    34 1   
    25    12    35 1   
    26    13    36 1   
    27    14    15 1   
    28    14    37 1   
    29    14    38 1   
    30    15    16 ar  
    31    15    24 ar  
    32    16    17 ar  
    33    16    39 1   
    34    17    18 ar  
    35    17    40 1   
    36    18    19 1   
    37    18    23 ar  
    38    19    20 2   
    39    19    21 1   
    40    21    22 1   
    41    21    41 1   
    42    22    42 1   
    43    23    24 ar  
    44    23    43 1   
    45    24    44 1   
@<TRIPOS>SUBSTRUCTURE
     1 AGJ         1 TEMP              0 ****  ****    0 ROOT
