@<TRIPOS>MOLECULE
AGJ
   44    45     1     0     0
SMALL
abcg2


@<TRIPOS>ATOM
      1 O01          1.5250     0.1330     1.1600 o          1 AGJ      -0.574100
      2 C02          1.7530    -0.4560     0.1160 c          1 AGJ       0.596100
      3 C03          2.7990     0.0540    -0.8650 c3         1 AGJ      -0.109100
      4 C04          3.6350     1.1490    -0.2740 ca         1 AGJ      -0.070300
      5 C05          3.2470     2.4810    -0.3840 ca         1 AGJ      -0.092500
      6 C06          4.0200     3.4920     0.1680 ca         1 AGJ      -0.108500
      7 C07          5.1940     3.1840     0.8420 ca         1 AGJ      -0.104000
      8 C08          5.5880     1.8570     0.9610 ca         1 AGJ      -0.108500
      9 C09          4.8120     0.8490     0.4050 ca         1 AGJ      -0.092500
     10 N10          1.0680    -1.5700    -0.2340 n          1 AGJ      -0.413800
     11 C11          1.2890    -2.3110    -1.4660 c3         1 AGJ       0.104000
     12 C12          2.3080    -3.4270    -1.3410 c3         1 AGJ       0.142600
     13 O13          1.8550    -4.3740    -0.4030 oh         1 AGJ      -0.658000
     14 C14          0.0300    -2.0350     0.6620 c3         1 AGJ       0.143300
     15 C15         -1.2610    -1.2580     0.5750 ca         1 AGJ      -0.061300
     16 C16         -2.2410    -1.4740     1.5430 ca         1 AGJ      -0.114500
     17 C17         -3.4610    -0.8250     1.4790 ca         1 AGJ      -0.065500
     18 C18         -3.7250     0.0790     0.4510 ca         1 AGJ      -0.163600
     19 C19         -5.0590     0.7450     0.4260 c          1 AGJ       0.609700
     20 O20         -6.0500     0.2390     0.9210 o          1 AGJ      -0.561100
     21 N21         -5.0720     1.9390    -0.2110 ns         1 AGJ      -0.375400
     22 O22         -6.2050     2.6960    -0.1480 oh         1 AGJ      -0.434100
     23 C23         -2.7520     0.2930    -0.5210 ca         1 AGJ      -0.065500
     24 C24         -1.5350    -0.3700    -0.4580 ca         1 AGJ      -0.114500
     25 H1           3.4390    -0.7630    -1.2040 hc         1 AGJ       0.060200
     26 H2           2.2800     0.4160    -1.7580 hc         1 AGJ       0.060200
     27 H3           2.3330     2.7310    -0.9100 ha         1 AGJ       0.108000
     28 H4           3.7050     4.5230     0.0700 ha         1 AGJ       0.112000
     29 H5           5.8000     3.9730     1.2690 ha         1 AGJ       0.112000
     30 H6           6.5030     1.6070     1.4830 ha         1 AGJ       0.112000
     31 H7           5.1290    -0.1840     0.4970 ha         1 AGJ       0.108000
     32 H8           0.3300    -2.7200    -1.7900 h1         1 AGJ       0.057200
     33 H9           1.6070    -1.6410    -2.2640 h1         1 AGJ       0.057200
     34 H10          2.4420    -3.8690    -2.3370 h1         1 AGJ       0.025200
     35 H11          3.2780    -3.0060    -1.0470 h1         1 AGJ       0.025200
     36 H12          2.5590    -5.0110    -0.2510 ho         1 AGJ       0.449000
     37 H13         -0.1740    -3.0790     0.4250 h1         1 AGJ       0.075700
     38 H14          0.3900    -2.0260     1.6920 h1         1 AGJ       0.075700
     39 H15         -2.0470    -2.1620     2.3570 ha         1 AGJ       0.115500
     40 H16         -4.2080    -1.0120     2.2380 ha         1 AGJ       0.123000
     41 H17         -4.2270     2.4810    -0.3210 hn         1 AGJ       0.330500
     42 H18         -6.6180     2.6250    -1.0180 ho         1 AGJ       0.448000
     43 H19         -2.9360     0.9610    -1.3530 ha         1 AGJ       0.123000
     44 H20         -0.8030    -0.1920    -1.2350 ha         1 AGJ       0.115500
@<TRIPOS>BOND
     1     1     2 2   
     2     2     3 1   
     3     2    10 1   
     4     3     4 1   
     5     3    25 1   
     6     3    26 1   
     7     4     5 ar  
     8     4     9 ar  
     9     5     6 ar  
    10     5    27 1   
    11     6     7 ar  
    12     6    28 1   
    13     7     8 ar  
    14     7    29 1   
    15     8     9 ar  
    16     8    30 1   
    17     9    31 1   
    18    10    11 1   
    19    10    14 1   
    20    11    12 1   
    21    11    32 1   
    22    11    33 1   
    23    12    13 1   
    24    12    34 1   
    25    12    35 1   
    26    13    36 1   
    27    14    15 1   
    28    14    37 1   
    29    14    38 1   
    30    15    16 ar  
    31    15    24 ar  
    32    16    17 ar  
    33    16    39 1   
    34    17    18 ar  
    35    17    40 1   
    36    18    19 1   
    37    18    23 ar  
    38    19    20 2   
    39    19    21 1   
    40    21    22 1   
    41    21    41 1   
    42    22    42 1   
    43    23    24 ar  
    44    23    43 1   
    45    24    44 1   
@<TRIPOS>SUBSTRUCTURE
     1 AGJ         1 TEMP              0 ****  ****    0 ROOT
