@<TRIPOS>MOLECULE
AGK
   22    22     1     0     0
SMALL
No Charge or Current Charge


@<TRIPOS>ATOM
      1 O2           0.4160     1.5250    -1.0750 oh         1 AGK      -0.673000
      2 C4           0.3190     0.9420     0.2420 c6         1 AGK       0.141300
      3 C3           1.6230     0.1360     0.5350 c6         1 AGK       0.131300
      4 O1           2.7800     0.9370     0.2130 oh         1 AGK      -0.672000
      5 C2           1.6370    -1.2100    -0.2570 c6         1 AGK       0.079800
      6 N1           0.3830    -1.9820    -0.0320 n7         1 AGK      -0.639200
      7 C5          -0.9310     0.0080     0.3830 c6         1 AGK       0.160500
      8 C6          -2.2620     0.7740     0.0690 c3         1 AGK       0.172600
      9 O           -3.4430     0.0110     0.3830 oh         1 AGK      -0.648000
     10 N           -0.7700    -1.1980    -0.4940 n7         1 AGK      -0.584200
     11 H2           1.3840     1.6770    -1.1850 ho         1 AGK       0.464000
     12 H4           0.2380     1.7430     0.9920 h1         1 AGK       0.051700
     13 H3           1.6260    -0.1080     1.6090 h1         1 AGK       0.058700
     14 H5          -0.9930    -0.3190     1.4320 h1         1 AGK       0.093700
     15 H1           3.5660     0.4610     0.5670 ho         1 AGK       0.454000
     16 H21C         1.7630    -1.0150    -1.3330 h1         1 AGK       0.043700
     17 H22C         2.4940    -1.8140     0.0740 h1         1 AGK       0.043700
     18 HA           0.4320    -2.9330    -0.4480 hn         1 AGK       0.436000
     19 H           -0.6690    -0.8770    -1.4710 hn         1 AGK       0.389000
     20 H61C        -2.2630     1.7050     0.6510 h1         1 AGK       0.027700
     21 H62C        -2.2670     1.0540    -0.9930 h1         1 AGK       0.027700
     22 HB          -4.2140     0.5490     0.1000 ho         1 AGK       0.440000
@<TRIPOS>BOND
     1     1     2 1   
     2     1    11 1   
     3     2     3 1   
     4     2     7 1   
     5     2    12 1   
     6     3     4 1   
     7     3     5 1   
     8     3    13 1   
     9     4    15 1   
    10     5     6 1   
    11     5    16 1   
    12     5    17 1   
    13     6    10 1   
    14     6    18 1   
    15     7     8 1   
    16     7    10 1   
    17     7    14 1   
    18     8     9 1   
    19     8    20 1   
    20     8    21 1   
    21     9    22 1   
    22    10    19 1   
@<TRIPOS>SUBSTRUCTURE
     1 AGK         1 TEMP              0 ****  ****    0 ROOT
