@<TRIPOS>MOLECULE
AGK
   22    22     1     0     0
SMALL
abcg2


@<TRIPOS>ATOM
      1 O2           0.3770     1.4470    -1.0420 oh         1 AGK      -0.673000
      2 C4           0.3310     0.9130     0.2630 c6         1 AGK       0.141300
      3 C3           1.5840     0.0960     0.5720 c6         1 AGK       0.131300
      4 O1           2.6960     0.9260     0.3200 oh         1 AGK      -0.672000
      5 C2           1.6050    -1.1840    -0.2590 c6         1 AGK       0.079800
      6 N1           0.3710    -1.9030     0.0070 n7         1 AGK      -0.639200
      7 C5          -0.9050     0.0110     0.3710 c6         1 AGK       0.160500
      8 C6          -2.1710     0.7660     0.0050 c3         1 AGK       0.172600
      9 O           -3.2900    -0.0020     0.3870 oh         1 AGK      -0.648000
     10 N           -0.7730    -1.1980    -0.4240 n7         1 AGK      -0.584200
     11 H2           1.2470     1.8410    -1.1700 ho         1 AGK       0.464000
     12 H4           0.2450     1.7190     1.0090 h1         1 AGK       0.051700
     13 H3           1.5370    -0.1950     1.6310 h1         1 AGK       0.058700
     14 H5          -0.9830    -0.2970     1.4190 h1         1 AGK       0.093700
     15 H1           3.5010     0.4050     0.4000 ho         1 AGK       0.454000
     16 H21C         1.7450    -0.9420    -1.3240 h1         1 AGK       0.043700
     17 H22C         2.4450    -1.8140     0.0460 h1         1 AGK       0.043700
     18 HA           0.3720    -2.8050    -0.4470 hn         1 AGK       0.436000
     19 H           -0.6690    -0.9250    -1.4030 hn         1 AGK       0.389000
     20 H61C        -2.1530     1.7350     0.5220 h1         1 AGK       0.027700
     21 H62C        -2.1830     0.9800    -1.0710 h1         1 AGK       0.027700
     22 HB          -4.0800     0.4920     0.1490 ho         1 AGK       0.440000
@<TRIPOS>BOND
     1     1     2 1   
     2     1    11 1   
     3     2     3 1   
     4     2     7 1   
     5     2    12 1   
     6     3     4 1   
     7     3     5 1   
     8     3    13 1   
     9     4    15 1   
    10     5     6 1   
    11     5    16 1   
    12     5    17 1   
    13     6    10 1   
    14     6    18 1   
    15     7     8 1   
    16     7    10 1   
    17     7    14 1   
    18     8     9 1   
    19     8    20 1   
    20     8    21 1   
    21     9    22 1   
    22    10    19 1   
@<TRIPOS>SUBSTRUCTURE
     1 AGK         1 TEMP              0 ****  ****    0 ROOT
