@<TRIPOS>MOLECULE
AGL
   24    24     1     0     0
SMALL
abcg2


@<TRIPOS>ATOM
      1 C1           6.4780    15.0170    42.1000 c6         1 AGL       0.391300
      2 C2           6.9540    14.6250    43.4960 c6         1 AGL       0.151300
      3 C3           7.4310    15.8530    44.2610 c6         1 AGL       0.130300
      4 C4           8.5120    16.5730    43.4570 c6         1 AGL       0.113500
      5 C5           7.9650    16.8890    42.0620 c6         1 AGL       0.174300
      6 C6           9.0070    17.4930    41.1410 c3         1 AGL      -0.089100
      7 O1           5.3100    15.7630    42.2180 oh         1 AGL      -0.722000
      8 O2           5.9180    13.9490    44.1590 oh         1 AGL      -0.702000
      9 O3           7.9230    15.4110    45.5140 oh         1 AGL      -0.737000
     10 N4           8.8830    17.8070    44.1310 n8         1 AGL      -0.996200
     11 O5           7.4990    15.7020    41.4290 os         1 AGL      -0.488000
     12 H1           6.3080    14.1140    41.5010 h2         1 AGL       0.073700
     13 H2           7.8220    13.9620    43.3500 h1         1 AGL       0.050700
     14 H3           6.5910    16.5450    44.4040 h1         1 AGL       0.074700
     15 H4           9.3610    15.8780    43.3360 h1         1 AGL       0.039700
     16 H5           7.1410    17.6050    42.1790 h1         1 AGL       0.062700
     17 H61          8.5960    17.6510    40.1440 hc         1 AGL       0.044367
     18 H62          9.3360    18.4640    41.5100 hc         1 AGL       0.044367
     19 H63          9.8820    16.8460    41.0550 hc         1 AGL       0.044367
     20 HO1          4.8990    15.8390    41.3500 ho         1 AGL       0.513000
     21 HO2          6.2430    13.7170    45.0350 ho         1 AGL       0.516000
     22 HO3          7.6360    16.0210    46.1990 ho         1 AGL       0.513000
     23 HN41         9.7170    18.1930    43.7070 hn         1 AGL       0.398000
     24 HN42         9.1490    17.5980    45.0850 hn         1 AGL       0.398000
@<TRIPOS>BOND
     1     1     2 1   
     2     1     7 1   
     3     1    11 1   
     4     1    12 1   
     5     2     3 1   
     6     2     8 1   
     7     2    13 1   
     8     3     4 1   
     9     3     9 1   
    10     3    14 1   
    11     4     5 1   
    12     4    10 1   
    13     4    15 1   
    14     5     6 1   
    15     5    11 1   
    16     5    16 1   
    17     6    17 1   
    18     6    18 1   
    19     6    19 1   
    20     7    20 1   
    21     8    21 1   
    22     9    22 1   
    23    10    23 1   
    24    10    24 1   
@<TRIPOS>SUBSTRUCTURE
     1 AGL         1 TEMP              0 ****  ****    0 ROOT
