@<TRIPOS>MOLECULE
AGL
   24    24     1     0     0
SMALL
No Charge or Current Charge


@<TRIPOS>ATOM
      1 C1           6.4540    14.9540    42.0350 c6         1 AGL       0.391300
      2 C2           6.8230    14.5320    43.5100 c6         1 AGL       0.151300
      3 C3           7.2740    15.7900    44.3030 c6         1 AGL       0.130300
      4 C4           8.4630    16.4690    43.5770 c6         1 AGL       0.113500
      5 C5           8.0230    16.8450    42.1210 c6         1 AGL       0.174300
      6 C6           9.1810    17.4260    41.2700 c3         1 AGL      -0.089100
      7 O1           5.3290    15.8330    41.9640 oh         1 AGL      -0.722000
      8 O2           5.7540    13.8580    44.2130 oh         1 AGL      -0.702000
      9 O3           7.6850    15.4840    45.6440 oh         1 AGL      -0.737000
     10 N4           8.9720    17.6020    44.4110 n8         1 AGL      -0.996200
     11 O5           7.5610    15.6540    41.4240 os         1 AGL      -0.488000
     12 H1           6.2450    14.0410    41.4550 h2         1 AGL       0.073700
     13 H2           7.6870    13.8540    43.4420 h1         1 AGL       0.050700
     14 H3           6.4350    16.5040    44.3270 h1         1 AGL       0.074700
     15 H4           9.2840    15.7390    43.5080 h1         1 AGL       0.039700
     16 H5           7.2130    17.5880    42.1540 h1         1 AGL       0.062700
     17 H61          8.8510    17.6230    40.2430 hc         1 AGL       0.044367
     18 H62          9.5430    18.3740    41.6840 hc         1 AGL       0.044367
     19 H63         10.0290    16.7320    41.2240 hc         1 AGL       0.044367
     20 HO1          5.2510    16.0560    41.0100 ho         1 AGL       0.513000
     21 HO2          5.9620    14.0060    45.1670 ho         1 AGL       0.516000
     22 HO3          8.3620    16.1930    45.8080 ho         1 AGL       0.513000
     23 HN41         8.3330    18.4030    44.3280 hn         1 AGL       0.398000
     24 HN42         9.8460    17.9560    43.9990 hn         1 AGL       0.398000
@<TRIPOS>BOND
     1     1     2 1   
     2     1     7 1   
     3     1    11 1   
     4     1    12 1   
     5     2     3 1   
     6     2     8 1   
     7     2    13 1   
     8     3     4 1   
     9     3     9 1   
    10     3    14 1   
    11     4     5 1   
    12     4    10 1   
    13     4    15 1   
    14     5     6 1   
    15     5    11 1   
    16     5    16 1   
    17     6    17 1   
    18     6    18 1   
    19     6    19 1   
    20     7    20 1   
    21     8    21 1   
    22     9    22 1   
    23    10    23 1   
    24    10    24 1   
@<TRIPOS>SUBSTRUCTURE
     1 AGL         1 TEMP              0 ****  ****    0 ROOT
