@<TRIPOS>MOLECULE
AGM
   29    28     1     0     0
SMALL
bcc


@<TRIPOS>ATOM
      1 N           50.2380    80.5120    57.8390 n8         1 AGM      -0.916800
      2 CA          50.1820    79.6820    59.0330 c3         1 AGM       0.013500
      3 CB          48.7680    79.1290    59.2270 c3         1 AGM      -0.028400
      4 CG          48.3390    78.1760    58.1180 c3         1 AGM      -0.098400
      5 CD          46.8420    77.8700    58.1240 c3         1 AGM       0.042000
      6 CE2         46.3880    77.1350    59.3760 c3         1 AGM      -0.108100
      7 NE1         46.4710    77.0590    56.9640 nu         1 AGM      -0.391100
      8 CZ          46.2550    77.5120    55.7360 cz         1 AGM       0.526300
      9 NH1         45.9880    76.6510    54.7590 nv         1 AGM      -0.518200
     10 NH2         46.2930    78.8110    55.4660 nv         1 AGM      -0.518200
     11 C           51.2450    78.5540    58.9920 c          1 AGM       0.922600
     12 O           51.1490    77.6790    59.8760 o          1 AGM      -0.822800
     13 OXT         52.1260    78.6290    58.1120 o          1 AGM      -0.822800
     14 H           49.9100    81.4450    58.0510 hn         1 AGM       0.338300
     15 H2          51.2030    80.5910    57.5470 hn         1 AGM       0.338300
     16 HA          50.4140    80.2640    59.9410 h1         1 AGM       0.021700
     17 HB2         48.7150    78.6350    60.1970 hc         1 AGM       0.024200
     18 HB3         48.0660    79.9700    59.2710 hc         1 AGM       0.024200
     19 HG2         48.6120    78.6200    57.1570 hc         1 AGM       0.073200
     20 HG3         48.8890    77.2330    58.1970 hc         1 AGM       0.073200
     21 HD          46.2780    78.8070    58.0710 h1         1 AGM       0.050700
     22 HE21        46.9220    76.1890    59.4880 hc         1 AGM       0.060033
     23 HE22        46.5850    77.7360    60.2610 hc         1 AGM       0.060033
     24 HE23        45.3190    76.9270    59.3440 hc         1 AGM       0.060033
     25 HE1         46.5120    76.0570    57.0810 hn         1 AGM       0.310700
     26 HH11        45.7720    76.9690    53.8290 hn         1 AGM       0.322200
     27 HH12        45.8440    75.6740    54.9530 hn         1 AGM       0.322200
     28 HH21        46.5770    79.4930    56.1480 hn         1 AGM       0.322200
     29 HH22        46.1000    79.1520    54.5390 hn         1 AGM       0.322200
@<TRIPOS>BOND
     1     1     2 1   
     2     1    14 1   
     3     1    15 1   
     4     2     3 1   
     5     2    11 1   
     6     2    16 1   
     7     3     4 1   
     8     3    17 1   
     9     3    18 1   
    10     4     5 1   
    11     4    19 1   
    12     4    20 1   
    13     5     6 1   
    14     5     7 1   
    15     5    21 1   
    16     6    22 1   
    17     6    23 1   
    18     6    24 1   
    19     7     8 2   
    20     7    25 1   
    21     8     9 1   
    22     8    10 1   
    23     9    26 1   
    24     9    27 1   
    25    10    28 1   
    26    10    29 1   
    27    11    12 1   
    28    11    13 1   
@<TRIPOS>SUBSTRUCTURE
     1 AGM         1 TEMP              0 ****  ****    0 ROOT
