@<TRIPOS>MOLECULE
AGM
   29    28     1     0     0
SMALL
No Charge or Current Charge


@<TRIPOS>ATOM
      1 N           50.4880    80.5500    57.8500 n8         1 AGM      -0.916800
      2 CA          50.2900    79.6600    59.0620 c3         1 AGM       0.013500
      3 CB          48.8120    79.1900    59.1610 c3         1 AGM      -0.028400
      4 CG          48.3530    78.2280    58.0330 c3         1 AGM      -0.098400
      5 CD          46.8470    77.8600    58.0820 c3         1 AGM       0.042000
      6 CE2         46.4520    77.0510    59.3360 c3         1 AGM      -0.108100
      7 NE1         46.4930    77.0770    56.8860 nu         1 AGM      -0.391100
      8 CZ          46.1370    77.5160    55.6790 cz         1 AGM       0.526300
      9 NH1         45.8370    76.6510    54.7280 nv         1 AGM      -0.518200
     10 NH2         46.0760    78.8070    55.3970 nv         1 AGM      -0.518200
     11 C           51.2960    78.4400    59.2870 c          1 AGM       0.922600
     12 O           51.6570    78.1910    60.4330 o          1 AGM      -0.822800
     13 OXT         51.7840    77.8710    58.3130 o          1 AGM      -0.822800
     14 H           49.8730    81.3670    57.9220 hn         1 AGM       0.338300
     15 H2          51.4370    80.9390    57.8660 hn         1 AGM       0.338300
     16 HA          50.4550    80.3220    59.9230 h1         1 AGM       0.021700
     17 HB2         48.6750    78.7010    60.1330 hc         1 AGM       0.024200
     18 HB3         48.1580    80.0710    59.1650 hc         1 AGM       0.024200
     19 HG2         48.5690    78.6970    57.0660 hc         1 AGM       0.073200
     20 HG3         48.9490    77.3080    58.0710 hc         1 AGM       0.073200
     21 HD          46.2610    78.7890    58.0900 h1         1 AGM       0.050700
     22 HE21        47.0490    76.1350    59.4210 hc         1 AGM       0.060033
     23 HE22        46.5970    77.6420    60.2480 hc         1 AGM       0.060033
     24 HE23        45.3920    76.7690    59.2950 hc         1 AGM       0.060033
     25 HE1         46.5260    76.0710    57.0060 hn         1 AGM       0.310700
     26 HH11        45.5650    76.9450    53.8000 hn         1 AGM       0.322200
     27 HH12        45.8620    75.6520    54.8780 hn         1 AGM       0.322200
     28 HH21        46.3090    79.5130    56.0800 hn         1 AGM       0.322200
     29 HH22        45.8050    79.1480    54.4850 hn         1 AGM       0.322200
@<TRIPOS>BOND
     1     1     2 1   
     2     1    14 1   
     3     1    15 1   
     4     2     3 1   
     5     2    11 1   
     6     2    16 1   
     7     3     4 1   
     8     3    17 1   
     9     3    18 1   
    10     4     5 1   
    11     4    19 1   
    12     4    20 1   
    13     5     6 1   
    14     5     7 1   
    15     5    21 1   
    16     6    22 1   
    17     6    23 1   
    18     6    24 1   
    19     7     8 2   
    20     7    25 1   
    21     8     9 1   
    22     8    10 1   
    23     9    26 1   
    24     9    27 1   
    25    10    28 1   
    26    10    29 1   
    27    11    12 1   
    28    11    13 1   
@<TRIPOS>SUBSTRUCTURE
     1 AGM         1 TEMP              0 ****  ****    0 ROOT
