@<TRIPOS>MOLECULE
AGN
   61    64     1     0     0
SMALL
bcc


@<TRIPOS>ATOM
      1 PG          -3.2570     1.9530    -6.2690 p5         1 AGN       1.281800
      2 O1G         -4.5180     1.1240    -6.5310 o          1 AGN      -0.887833
      3 O2G         -3.4960     3.1940    -5.4150 o          1 AGN      -0.887833
      4 O3G         -2.4220     2.2130    -7.5240 o          1 AGN      -0.887833
      5 N3B         -2.3210     0.8380    -5.2500 n7         1 AGN      -0.871400
      6 PB          -0.6780     0.9760    -4.9720 p5         1 AGN       1.445700
      7 O1B          0.1430     0.0050    -5.7820 o          1 AGN      -0.881500
      8 O2B         -0.2770     2.4200    -4.9120 o          1 AGN      -0.881500
      9 O3A         -0.6630     0.3920    -3.3880 os         1 AGN      -0.696800
     10 PA           0.5910    -0.3520    -2.6840 p5         1 AGN       1.457800
     11 O1A          0.5160    -1.8410    -2.8540 o          1 AGN      -0.876500
     12 O2A          1.8860     0.3590    -2.9380 o          1 AGN      -0.876500
     13 O5           0.0790     0.0190    -1.1470 os         1 AGN      -0.520200
     14 C5B          0.7340    -0.6170    -0.0800 c3         1 AGN       0.224400
     15 C4B          0.6170     0.2430     1.1560 c5         1 AGN       0.128100
     16 O4          -0.7450     0.3830     1.5200 os         1 AGN      -0.343600
     17 C3B          1.2690    -0.3700     2.3910 c5         1 AGN       0.107100
     18 O3           2.6540    -0.0660     2.3610 os         1 AGN      -0.382900
     19 C2B          0.5030     0.2970     3.5260 c5         1 AGN      -0.154400
     20 C1B         -0.8750     0.5670     2.9100 c5         1 AGN       0.244800
     21 C            3.4510    -0.6820     3.2350 c          1 AGN       0.657700
     22 O1           3.0070    -1.4500     4.0660 o          1 AGN      -0.639000
     23 C1           4.8650    -0.3300     3.0750 ca         1 AGN      -0.257600
     24 C2           5.8490    -0.8600     3.9610 ca         1 AGN       0.230600
     25 N2           5.5440    -1.6950     4.9730 nu         1 AGN      -0.800600
     26 CM           6.5120    -2.2710     5.8670 c3         1 AGN       0.241100
     27 C3           7.1920    -0.4730     3.7470 ca         1 AGN      -0.255000
     28 C4           7.5380     0.3790     2.7230 ca         1 AGN      -0.136000
     29 C5           6.5750     0.8930     1.8550 ca         1 AGN      -0.192000
     30 C6           5.2600     0.5340     2.0440 ca         1 AGN      -0.032000
     31 N9          -1.9110    -0.3140     3.3940 na         1 AGN      -0.184900
     32 C8          -1.8550    -1.6810     3.5190 cc         1 AGN       0.436400
     33 N7          -2.9740    -2.2000     3.9130 nd         1 AGN      -0.636000
     34 C10         -3.8240    -1.1320     4.0500 cd         1 AGN       0.149800
     35 C11         -5.1910    -1.0790     4.4490 c          1 AGN       0.669000
     36 O6          -5.9290    -1.9940     4.7740 o          1 AGN      -0.643500
     37 N1          -5.6570     0.2420     4.4330 ns         1 AGN      -0.525400
     38 C7          -4.9340     1.3470     4.0870 cd         1 AGN       0.709800
     39 N4          -5.5560     2.5320     4.1670 nv         1 AGN      -0.948800
     40 N3          -3.6770     1.2920     3.7220 nc         1 AGN      -0.662100
     41 C9          -3.1820     0.0480     3.7240 cc         1 AGN       0.134800
     42 HNB3        -2.6110    -0.1200    -5.4040 hn         1 AGN       0.347800
     43 H5'2         0.3010    -1.6050     0.1220 h1         1 AGN       0.009700
     44 H5'1         1.8030    -0.7670    -0.2750 h1         1 AGN       0.009700
     45 H4B          1.0630     1.2280     0.9610 h1         1 AGN       0.078700
     46 H3B          1.1330    -1.4560     2.3980 h1         1 AGN       0.068700
     47 H2'1         0.4510    -0.3000     4.4350 hc         1 AGN       0.058700
     48 H2'2         0.9790     1.2460     3.7770 hc         1 AGN       0.058700
     49 H1          -1.2160     1.5790     3.1350 h2         1 AGN       0.083700
     50 HN2          4.5820    -1.9710     5.0680 hn         1 AGN       0.470800
     51 HM'1         5.9830    -2.8920     6.5840 h1         1 AGN       0.011700
     52 HM'2         7.2390    -2.9020     5.3480 h1         1 AGN       0.011700
     53 HM'3         7.0650    -1.5130     6.4260 h1         1 AGN       0.011700
     54 H3           7.9670    -0.8500     4.3990 ha         1 AGN       0.095000
     55 H4           8.5790     0.6470     2.5960 ha         1 AGN       0.092000
     56 H5           6.8530     1.5570     1.0480 ha         1 AGN       0.127000
     57 H6           4.5120     0.9310     1.3710 ha         1 AGN       0.166000
     58 H8          -0.9540    -2.2360     3.3050 h5         1 AGN       0.070100
     59 HN1         -6.6230     0.3680     4.7070 hn         1 AGN       0.300500
     60 HN21        -5.0850     3.3300     3.7760 hn         1 AGN       0.437300
     61 HN22        -6.5580     2.5890     4.2270 hn         1 AGN       0.437300
@<TRIPOS>BOND
     1     1     2 1   
     2     1     3 1   
     3     1     4 1   
     4     1     5 1   
     5     5     6 1   
     6     5    42 1   
     7     6     7 1   
     8     6     8 1   
     9     6     9 1   
    10     9    10 1   
    11    10    11 1   
    12    10    12 1   
    13    10    13 1   
    14    13    14 1   
    15    14    15 1   
    16    14    43 1   
    17    14    44 1   
    18    15    16 1   
    19    15    17 1   
    20    15    45 1   
    21    16    20 1   
    22    17    18 1   
    23    17    19 1   
    24    17    46 1   
    25    18    21 1   
    26    19    20 1   
    27    19    47 1   
    28    19    48 1   
    29    20    31 1   
    30    20    49 1   
    31    21    22 2   
    32    21    23 1   
    33    23    24 ar  
    34    23    30 ar  
    35    24    25 1   
    36    24    27 ar  
    37    25    26 1   
    38    25    50 1   
    39    26    51 1   
    40    26    52 1   
    41    26    53 1   
    42    27    28 ar  
    43    27    54 1   
    44    28    29 ar  
    45    28    55 1   
    46    29    30 ar  
    47    29    56 1   
    48    30    57 1   
    49    31    32 1   
    50    31    41 1   
    51    32    33 2   
    52    32    58 1   
    53    33    34 1   
    54    34    35 1   
    55    34    41 2   
    56    35    36 2   
    57    35    37 1   
    58    37    38 1   
    59    37    59 1   
    60    38    39 1   
    61    38    40 2   
    62    39    60 1   
    63    39    61 1   
    64    40    41 1   
@<TRIPOS>SUBSTRUCTURE
     1 AGN         1 TEMP              0 ****  ****    0 ROOT
