@<TRIPOS>MOLECULE
AGN
   61    64     1     0     0
SMALL
No Charge or Current Charge


@<TRIPOS>ATOM
      1 PG          -3.2360    -1.0220    -5.2040 p5         1 AGN       1.281800
      2 O1G         -3.3870    -2.4980    -5.1620 o          1 AGN      -0.887833
      3 O2G         -4.3730    -0.3600    -4.5110 o          1 AGN      -0.887833
      4 O3G         -3.0880    -0.5760    -6.6120 o          1 AGN      -0.887833
      5 N3B         -1.8900    -0.7530    -4.3880 n7         1 AGN      -0.871400
      6 PB          -1.1080     0.6380    -4.5280 p5         1 AGN       1.445700
      7 O1B         -0.0910     0.3880    -5.5870 o          1 AGN      -0.881500
      8 O2B         -2.0110     1.8060    -4.7500 o          1 AGN      -0.881500
      9 O3A         -0.5240     0.5790    -3.0670 os         1 AGN      -0.696800
     10 PA           0.7650     1.4670    -2.8590 p5         1 AGN       1.457800
     11 O1A          2.0330     0.7640    -3.2250 o          1 AGN      -0.876500
     12 O2A          0.6830     2.8310    -3.4640 o          1 AGN      -0.876500
     13 O5           0.6490     1.6060    -1.2570 os         1 AGN      -0.520200
     14 C5B          1.0050     0.4890    -0.4360 c3         1 AGN       0.224400
     15 C4B          0.7650     0.8680     1.0460 c5         1 AGN       0.128100
     16 O4          -0.6410     0.8760     1.3630 os         1 AGN      -0.343600
     17 C3B          1.3200    -0.1470     2.0690 c5         1 AGN       0.107100
     18 O3           2.7390     0.1100     2.2360 os         1 AGN      -0.382900
     19 C2B          0.5820     0.3260     3.3540 c5         1 AGN      -0.154400
     20 C1B         -0.7820     0.8480     2.7990 c5         1 AGN       0.244800
     21 C            3.4210    -0.7920     3.0230 c          1 AGN       0.657700
     22 O1           2.9030    -1.8000     3.4990 o          1 AGN      -0.639000
     23 C1           4.8880    -0.4380     3.1990 ca         1 AGN      -0.257600
     24 C2           5.7730    -1.2380     3.9660 ca         1 AGN       0.230600
     25 N2           5.3230    -2.3940     4.5960 nu         1 AGN      -0.800600
     26 CM           6.1200    -3.5620     4.9880 c3         1 AGN       0.241100
     27 C3           7.1230    -0.8610     4.1060 ca         1 AGN      -0.255000
     28 C4           7.6140     0.2980     3.4890 ca         1 AGN      -0.136000
     29 C5           6.7520     1.0920     2.7260 ca         1 AGN      -0.192000
     30 C6           5.4020     0.7330     2.5810 ca         1 AGN      -0.032000
     31 N9          -1.9670     0.0630     3.1350 na         1 AGN      -0.184900
     32 C8          -2.0540    -1.3160     3.1890 cc         1 AGN       0.436400
     33 N7          -3.2620    -1.7160     3.5770 nd         1 AGN      -0.636000
     34 C10         -3.9820    -0.5410     3.7940 cd         1 AGN       0.149800
     35 C11         -5.3900    -0.3050     4.2480 c          1 AGN       0.669000
     36 O6          -6.2150    -1.1710     4.5240 o          1 AGN      -0.643500
     37 N1          -5.6970     1.0180     4.3380 ns         1 AGN      -0.525400
     38 C7          -4.8240     2.0020     4.0550 cd         1 AGN       0.709800
     39 N4          -5.2700     3.2420     4.1920 nv         1 AGN      -0.948800
     40 N3          -3.5810     1.8670     3.6560 nc         1 AGN      -0.662100
     41 C9          -3.1880     0.5490     3.5300 cc         1 AGN       0.134800
     42 HNB3        -1.2410    -1.2770    -4.9460 hn         1 AGN       0.347800
     43 H5'2         0.4090    -0.3980    -0.6880 h1         1 AGN       0.009700
     44 H5'1         2.0660     0.2420    -0.5670 h1         1 AGN       0.009700
     45 H4B          1.1770     1.8700     1.2300 h1         1 AGN       0.078700
     46 H3B          1.1160    -1.1880     1.7820 h1         1 AGN       0.068700
     47 H2'1         0.4680    -0.4750     4.0910 hc         1 AGN       0.058700
     48 H2'2         1.1200     1.1410     3.8520 hc         1 AGN       0.058700
     49 H1          -0.9670     1.8640     3.1710 h2         1 AGN       0.083700
     50 HN2          4.3230    -2.5670     4.4360 hn         1 AGN       0.470800
     51 HM'1         5.4670    -4.3390     5.4040 h1         1 AGN       0.011700
     52 HM'2         6.6440    -3.9740     4.1160 h1         1 AGN       0.011700
     53 HM'3         6.8600    -3.2860     5.7500 h1         1 AGN       0.011700
     54 H3           7.8050    -1.4620     4.6990 ha         1 AGN       0.095000
     55 H4           8.6600     0.5790     3.6030 ha         1 AGN       0.092000
     56 H5           7.1260     1.9930     2.2450 ha         1 AGN       0.127000
     57 H6           4.7630     1.3800     1.9810 ha         1 AGN       0.166000
     58 H8          -1.2200    -1.9580     2.9320 h5         1 AGN       0.070100
     59 HN1         -6.6270     1.2400     4.6530 hn         1 AGN       0.300500
     60 HN21        -4.6760     3.9560     3.7910 hn         1 AGN       0.437300
     61 HN22        -6.2680     3.3970     4.1370 hn         1 AGN       0.437300
@<TRIPOS>BOND
     1     1     2 1   
     2     1     3 1   
     3     1     4 1   
     4     1     5 1   
     5     5     6 1   
     6     5    42 1   
     7     6     7 1   
     8     6     8 1   
     9     6     9 1   
    10     9    10 1   
    11    10    11 1   
    12    10    12 1   
    13    10    13 1   
    14    13    14 1   
    15    14    15 1   
    16    14    43 1   
    17    14    44 1   
    18    15    16 1   
    19    15    17 1   
    20    15    45 1   
    21    16    20 1   
    22    17    18 1   
    23    17    19 1   
    24    17    46 1   
    25    18    21 1   
    26    19    20 1   
    27    19    47 1   
    28    19    48 1   
    29    20    31 1   
    30    20    49 1   
    31    21    22 2   
    32    21    23 1   
    33    23    24 ar  
    34    23    30 ar  
    35    24    25 1   
    36    24    27 ar  
    37    25    26 1   
    38    25    50 1   
    39    26    51 1   
    40    26    52 1   
    41    26    53 1   
    42    27    28 ar  
    43    27    54 1   
    44    28    29 ar  
    45    28    55 1   
    46    29    30 ar  
    47    29    56 1   
    48    30    57 1   
    49    31    32 1   
    50    31    41 1   
    51    32    33 2   
    52    32    58 1   
    53    33    34 1   
    54    34    35 1   
    55    34    41 2   
    56    35    36 2   
    57    35    37 1   
    58    37    38 1   
    59    37    59 1   
    60    38    39 1   
    61    38    40 2   
    62    39    60 1   
    63    39    61 1   
    64    40    41 1   
@<TRIPOS>SUBSTRUCTURE
     1 AGN         1 TEMP              0 ****  ****    0 ROOT
