@<TRIPOS>MOLECULE
AGQ
   31    31     1     0     0
SMALL
No Charge or Current Charge


@<TRIPOS>ATOM
      1 OXT        -21.0420    -5.8220    25.5120 o          1 AGQ      -0.830800
      2 C          -22.1080    -6.0690    24.9530 c          1 AGQ       0.932600
      3 N          -22.0720    -7.0080    22.4730 n8         1 AGQ      -0.908800
      4 O          -23.1150    -5.3910    25.1400 o          1 AGQ      -0.830800
      5 N6         -19.2090   -11.2100    20.3280 nu         1 AGQ      -0.530300
      6 C7         -18.4670   -11.6250    19.2530 c2         1 AGQ       0.829100
      7 N8         -18.8200   -12.5260    18.4460 n2         1 AGQ      -0.845100
      8 N9         -17.3720   -10.8650    19.1410 nv         1 AGQ      -0.972800
      9 CA         -22.2080    -7.3080    23.9500 c3         1 AGQ       0.023500
     10 CB         -21.2420    -8.4590    24.3510 c3         1 AGQ      -0.022200
     11 CG         -21.4930    -9.7630    23.6140 cc         1 AGQ      -0.084400
     12 CZ         -22.0690   -12.2360    22.3360 cc         1 AGQ       0.115500
     13 CD1        -22.6300   -10.5850    24.1100 c          1 AGQ       0.562500
     14 CD2        -20.7150   -10.1920    22.5470 cd         1 AGQ      -0.272600
     15 CE1        -22.8550   -11.8410    23.3920 cd         1 AGQ      -0.327200
     16 CE2        -20.9960   -11.4540    21.8800 cd         1 AGQ       0.369900
     17 H          -22.2110    -7.8720    21.9390 hn         1 AGQ       0.333300
     18 H2         -22.8410    -6.3940    22.1810 hn         1 AGQ       0.333300
     19 H6         -18.9130   -10.2970    20.6600 hn         1 AGQ       0.444800
     20 H8         -18.1030   -12.5950    17.7190 hn         1 AGQ       0.375400
     21 H91        -16.7820   -11.1180    18.3600 hn         1 AGQ       0.408300
     22 H92        -16.8710   -10.7490    20.0120 hn         1 AGQ       0.408300
     23 HA         -23.2260    -7.6980    24.0780 h1         1 AGQ       0.017700
     24 HB2        -20.2090    -8.1310    24.1830 hc         1 AGQ       0.066200
     25 HB3        -21.3210    -8.6290    25.4330 hc         1 AGQ       0.066200
     26 HH         -21.7090   -13.5250    21.0220 ho         1 AGQ       0.462000
     27 HD2        -19.8950    -9.5650    22.2210 ha         1 AGQ       0.137000
     28 HE1        -23.6830   -12.4410    23.7480 ha         1 AGQ       0.154000
     29 OH         -22.3670   -13.4170    21.7450 oh         1 AGQ      -0.493100
     30 N5         -20.2860   -11.8910    20.8710 n2         1 AGQ      -0.405400
     31 OZ         -23.3460   -10.2660    25.0510 o          1 AGQ      -0.517100
@<TRIPOS>BOND
     1     1     2 1   
     2     2     4 1   
     3     2     9 1   
     4     3     9 1   
     5     3    17 1   
     6     3    18 1   
     7     5     6 1   
     8     5    19 1   
     9     5    30 1   
    10     6     7 2   
    11     6     8 1   
    12     7    20 1   
    13     8    21 1   
    14     8    22 1   
    15     9    10 1   
    16     9    23 1   
    17    10    11 1   
    18    10    24 1   
    19    10    25 1   
    20    11    13 1   
    21    11    14 2   
    22    12    15 2   
    23    12    16 1   
    24    12    29 1   
    25    13    15 1   
    26    13    31 2   
    27    14    16 1   
    28    14    27 1   
    29    15    28 1   
    30    16    30 2   
    31    26    29 1   
@<TRIPOS>SUBSTRUCTURE
     1 AGQ         1 TEMP              0 ****  ****    0 ROOT
