@<TRIPOS>MOLECULE
AGQ
   31    31     1     0     0
SMALL
bcc


@<TRIPOS>ATOM
      1 OXT        -21.9830    -6.2410    26.0200 o          1 AGQ      -0.830800
      2 C          -22.1720    -6.1130    24.7960 c          1 AGQ       0.932600
      3 N          -22.1050    -7.1680    22.5550 n8         1 AGQ      -0.908800
      4 O          -22.3250    -5.0460    24.1700 o          1 AGQ      -0.830800
      5 N6         -19.1820   -11.1080    20.3780 nu         1 AGQ      -0.530300
      6 C7         -18.5380   -11.6320    19.2510 c2         1 AGQ       0.829100
      7 N8         -19.0540   -12.6110    18.6280 n2         1 AGQ      -0.845100
      8 N9         -17.4150   -10.9180    18.9410 nv         1 AGQ      -0.972800
      9 CA         -22.2880    -7.4250    23.9730 c3         1 AGQ       0.023500
     10 CB         -21.2790    -8.4790    24.4550 c3         1 AGQ      -0.022200
     11 CG         -21.4380    -9.7680    23.7160 cc         1 AGQ      -0.084400
     12 CZ         -21.9670   -12.1880    22.2950 cc         1 AGQ       0.115500
     13 CD1        -22.5230   -10.6920    24.1430 c          1 AGQ       0.562500
     14 CD2        -20.6720   -10.0830    22.6570 cd         1 AGQ      -0.272600
     15 CE1        -22.7410   -11.8900    23.3620 cd         1 AGQ      -0.327200
     16 CE2        -20.8750   -11.2980    21.9010 cd         1 AGQ       0.369900
     17 H          -22.6340    -7.8270    22.0020 hn         1 AGQ       0.333300
     18 H2         -22.4740    -6.2460    22.3600 hn         1 AGQ       0.333300
     19 H6         -18.8610   -10.2260    20.7620 hn         1 AGQ       0.444800
     20 H8         -18.4540   -12.9080    17.8670 hn         1 AGQ       0.375400
     21 H91        -16.8280   -11.3130    18.2230 hn         1 AGQ       0.408300
     22 H92        -16.8840   -10.5060    19.6940 hn         1 AGQ       0.408300
     23 HA         -23.2950    -7.8140    24.1960 h1         1 AGQ       0.017700
     24 HB2        -20.2690    -8.0930    24.2950 hc         1 AGQ       0.066200
     25 HB3        -21.4070    -8.6370    25.5240 hc         1 AGQ       0.066200
     26 HH         -21.5050   -13.3130    20.8660 ho         1 AGQ       0.462000
     27 HD2        -19.8840    -9.3990    22.3640 ha         1 AGQ       0.137000
     28 HE1        -23.5430   -12.5540    23.6620 ha         1 AGQ       0.154000
     29 OH         -22.1650   -13.2870    21.5800 oh         1 AGQ      -0.493100
     30 N5         -20.2070   -11.7290    20.8860 n2         1 AGQ      -0.405400
     31 OZ         -23.2070   -10.4330    25.1280 o          1 AGQ      -0.517100
@<TRIPOS>BOND
     1     1     2 1   
     2     2     4 1   
     3     2     9 1   
     4     3     9 1   
     5     3    17 1   
     6     3    18 1   
     7     5     6 1   
     8     5    19 1   
     9     5    30 1   
    10     6     7 2   
    11     6     8 1   
    12     7    20 1   
    13     8    21 1   
    14     8    22 1   
    15     9    10 1   
    16     9    23 1   
    17    10    11 1   
    18    10    24 1   
    19    10    25 1   
    20    11    13 1   
    21    11    14 2   
    22    12    15 2   
    23    12    16 1   
    24    12    29 1   
    25    13    15 1   
    26    13    31 2   
    27    14    16 1   
    28    14    27 1   
    29    15    28 1   
    30    16    30 2   
    31    26    29 1   
@<TRIPOS>SUBSTRUCTURE
     1 AGQ         1 TEMP              0 ****  ****    0 ROOT
