@<TRIPOS>MOLECULE
AGR
   66    68     1     0     0
SMALL
No Charge or Current Charge


@<TRIPOS>ATOM
      1 O2           3.3490    -3.0340    -0.2610 oh         1 AGR      -0.735000
      2 C2           4.0430    -1.7890     0.0030 c6         1 AGR       0.119300
      3 C3           4.2290    -1.5760     1.5450 c6         1 AGR       0.149300
      4 O3           2.9470    -1.5310     2.2050 oh         1 AGR      -0.661000
      5 C4           5.0230    -0.2540     1.8080 c6         1 AGR       0.101300
      6 O4           6.3820    -0.3800     1.3240 oh         1 AGR      -0.719000
      7 C5           4.2710     0.9280     1.1070 c6         1 AGR       0.166300
      8 C6           5.0040     2.2990     1.2850 c3         1 AGR       0.172600
      9 O6           4.2880     3.4100     0.7090 oh         1 AGR      -0.706000
     10 O5           4.1050     0.6630    -0.3150 os         1 AGR      -0.450000
     11 C1           3.3380    -0.5220    -0.6240 c6         1 AGR       0.370300
     12 O1           1.9940    -0.3320    -0.1150 os         1 AGR      -0.520000
     13 CBH          0.8410    -0.6160    -0.9720 c5         1 AGR       0.405000
     14 CAO          0.7650    -2.0890    -1.5180 c3         1 AGR       0.145600
     15 OAD          1.8630    -2.4590    -2.3910 oh         1 AGR      -0.734000
     16 CBD         -0.4360    -0.2320    -0.1420 c5         1 AGR       0.129300
     17 OAK         -0.5410    -0.8910     1.1430 oh         1 AGR      -0.770000
     18 OAR          0.8030     0.3540    -2.0370 os         1 AGR      -0.465000
     19 CBC          0.3330     1.6300    -1.5040 c5         1 AGR       0.158300
     20 CAN          1.4600     2.7000    -1.4990 c3         1 AGR       0.147600
     21 OAC          1.7980     3.1250    -2.8360 oh         1 AGR      -0.725000
     22 CBG         -0.2490     1.3260    -0.0800 c5         1 AGR       0.188300
     23 OAU         -1.5260     2.0210     0.0270 os         1 AGR      -0.601400
     24 O15         -1.9110     0.8640     2.2880 o          1 AGR      -0.802500
     25 P1          -2.4010     1.9420     1.3810 p5         1 AGR       1.433800
     26 OAL         -2.4440     3.2690     2.0560 o          1 AGR      -0.802500
     27 OBA         -3.8250     1.5660     0.7250 os         1 AGR      -0.577400
     28 CBO         -4.1220     0.1990     0.3380 c6         1 AGR       0.226300
     29 CBM         -4.6070     0.1010    -1.1480 c6         1 AGR       0.163300
     30 O14         -3.6380     0.6090    -2.0800 oh         1 AGR      -0.610000
     31 CBL         -4.9250    -1.3790    -1.5150 c6         1 AGR       0.092300
     32 O10         -3.6960    -2.1350    -1.5630 oh         1 AGR      -0.684000
     33 CBN         -5.9250    -1.9610    -0.4670 c6         1 AGR       0.142600
     34 OAX         -5.3930    -1.8440     0.8720 os         1 AGR      -0.488000
     35 C8          -5.1790    -0.4850     1.2740 c6         1 AGR       0.374300
     36 OAH         -4.7640    -0.5630     2.6240 oh         1 AGR      -0.594000
     37 H1           2.8140    -2.8910    -1.0980 ho         1 AGR       0.534000
     38 H2           5.0430    -1.8460    -0.4500 h1         1 AGR       0.052700
     39 H3           4.8160    -2.4160     1.9460 h1         1 AGR       0.054700
     40 H4           2.3090    -1.2380     1.5060 ho         1 AGR       0.493000
     41 H5           5.0340    -0.0620     2.8910 h1         1 AGR       0.050700
     42 H6           6.8700    -0.9540     1.9590 ho         1 AGR       0.493000
     43 H7           3.2790     1.0410     1.5680 h1         1 AGR       0.091700
     44 H8           5.1500     2.4690     2.3600 h1         1 AGR       0.025200
     45 H9           6.0000     2.2230     0.8290 h1         1 AGR       0.025200
     46 H10          4.8610     4.2040     0.8140 ho         1 AGR       0.495000
     47 H11          3.3130    -0.6220    -1.7200 h2         1 AGR       0.096700
     48 H12          0.7180    -2.7680    -0.6570 h1         1 AGR       0.047200
     49 H13         -0.1880    -2.2040    -2.0520 h1         1 AGR       0.047200
     50 H14          1.6980    -2.0110    -3.2560 ho         1 AGR       0.498000
     51 H15         -1.3230    -0.4680    -0.7450 h1         1 AGR       0.054700
     52 H16         -1.0820    -0.2570     1.7280 ho         1 AGR       0.596000
     53 H17         -0.4670     1.9900    -2.1640 h1         1 AGR       0.078700
     54 H18          1.1140     3.5610    -0.9110 h1         1 AGR       0.047200
     55 H19          2.3390     2.2920    -0.9870 h1         1 AGR       0.047200
     56 H20          2.6090     3.6790    -2.7630 ho         1 AGR       0.486000
     57 H21          0.4320     1.6400     0.7240 h1         1 AGR       0.066700
     58 H23         -3.2080    -0.4030     0.4210 h1         1 AGR       0.086700
     59 H24         -5.5360     0.6830    -1.2370 h1         1 AGR       0.032700
     60 H25         -3.1410    -0.1900    -2.3640 ho         1 AGR       0.427000
     61 H26         -5.4100    -1.4030    -2.5020 h1         1 AGR       0.014700
     62 H27         -3.9420    -3.0880    -1.6110 ho         1 AGR       0.489000
     63 H28         -6.8840    -1.4260    -0.5230 h1         1 AGR       0.036200
     64 H29         -6.1210    -3.0210    -0.6810 h1         1 AGR       0.036200
     65 H30         -6.1310     0.0640     1.2190 h2         1 AGR       0.012700
     66 H31         -4.9430    -1.4950     2.8620 ho         1 AGR       0.438000
@<TRIPOS>BOND
     1     1     2 1   
     2     1    37 1   
     3     2     3 1   
     4     2    11 1   
     5     2    38 1   
     6     3     4 1   
     7     3     5 1   
     8     3    39 1   
     9     4    40 1   
    10     5     6 1   
    11     5     7 1   
    12     5    41 1   
    13     6    42 1   
    14     7     8 1   
    15     7    10 1   
    16     7    43 1   
    17     8     9 1   
    18     8    44 1   
    19     8    45 1   
    20     9    46 1   
    21    10    11 1   
    22    11    12 1   
    23    11    47 1   
    24    12    13 1   
    25    13    14 1   
    26    13    16 1   
    27    13    18 1   
    28    14    15 1   
    29    14    48 1   
    30    14    49 1   
    31    15    50 1   
    32    16    17 1   
    33    16    22 1   
    34    16    51 1   
    35    17    52 1   
    36    18    19 1   
    37    19    20 1   
    38    19    22 1   
    39    19    53 1   
    40    20    21 1   
    41    20    54 1   
    42    20    55 1   
    43    21    56 1   
    44    22    23 1   
    45    22    57 1   
    46    23    25 1   
    47    24    25 1   
    48    25    26 1   
    49    25    27 1   
    50    27    28 1   
    51    28    29 1   
    52    28    35 1   
    53    28    58 1   
    54    29    30 1   
    55    29    31 1   
    56    29    59 1   
    57    30    60 1   
    58    31    32 1   
    59    31    33 1   
    60    31    61 1   
    61    32    62 1   
    62    33    34 1   
    63    33    63 1   
    64    33    64 1   
    65    34    35 1   
    66    35    36 1   
    67    35    65 1   
    68    36    66 1   
@<TRIPOS>SUBSTRUCTURE
     1 AGR         1 TEMP              0 ****  ****    0 ROOT
