@<TRIPOS>MOLECULE
AGR
   66    68     1     0     0
SMALL
bcc


@<TRIPOS>ATOM
      1 O2           3.9490    -2.9290    -0.5640 oh         1 AGR      -0.612800
      2 C2           4.3200    -1.6560    -0.1070 c6         1 AGR       0.096100
      3 C3           4.3430    -1.6320     1.4240 c6         1 AGR       0.126100
      4 O3           3.1370    -2.0490     2.0190 oh         1 AGR      -0.598800
      5 C4           4.7340    -0.2220     1.9020 c6         1 AGR       0.078100
      6 O4           6.0640     0.0890     1.5560 oh         1 AGR      -0.596800
      7 C5           3.8150     0.8130     1.2700 c6         1 AGR       0.143100
      8 C6           4.2060     2.2330     1.6180 c3         1 AGR       0.149400
      9 O6           3.1530     3.0940     1.2500 oh         1 AGR      -0.583800
     10 O5           3.8070     0.6970    -0.1470 os         1 AGR      -0.403600
     11 C1           3.4090    -0.5430    -0.6410 c6         1 AGR       0.323900
     12 O1           2.1020    -0.8450    -0.2330 os         1 AGR      -0.473600
     13 CBH          0.9890    -0.7680    -1.0960 c5         1 AGR       0.358600
     14 CAO          0.7660    -2.1100    -1.7730 c3         1 AGR       0.122400
     15 OAD          1.9170    -2.4620    -2.5130 oh         1 AGR      -0.611800
     16 CBD         -0.2030    -0.3540    -0.2240 c5         1 AGR       0.106100
     17 OAK         -0.1820    -1.0060     1.0040 oh         1 AGR      -0.647800
     18 OAR          1.1330     0.2400    -2.0430 os         1 AGR      -0.418600
     19 CBC          0.4280     1.4190    -1.6470 c5         1 AGR       0.135100
     20 CAN          1.2880     2.6470    -1.8000 c3         1 AGR       0.124400
     21 OAC          1.5550     2.8490    -3.1700 oh         1 AGR      -0.602800
     22 CBG         -0.0270     1.1670    -0.2120 c5         1 AGR       0.165100
     23 OAU         -1.1820     1.9390     0.0220 os         1 AGR      -0.578200
     24 O15         -1.4600     0.8330     2.3050 o          1 AGR      -0.802500
     25 P1          -2.0380     1.9110     1.4200 p5         1 AGR       1.433800
     26 OAL         -2.1880     3.3080     1.9150 o          1 AGR      -0.802500
     27 OBA         -3.5140     1.4870     0.8680 os         1 AGR      -0.554200
     28 CBO         -3.8240     0.1690     0.4690 c6         1 AGR       0.203100
     29 CBM         -4.3150     0.1710    -0.9750 c6         1 AGR       0.140100
     30 O14         -3.2960     0.6500    -1.8070 oh         1 AGR      -0.547800
     31 CBL         -4.7920    -1.2290    -1.3620 c6         1 AGR       0.069100
     32 O10         -3.6730    -2.0800    -1.3960 oh         1 AGR      -0.561800
     33 CBN         -5.8360    -1.6820    -0.3520 c6         1 AGR       0.119400
     34 OAX         -5.3230    -1.6530     0.9610 os         1 AGR      -0.441600
     35 C8          -4.9460    -0.3580     1.3680 c6         1 AGR       0.327900
     36 OAH         -4.4940    -0.4220     2.6650 oh         1 AGR      -0.531800
     37 H1           3.3210    -2.8430    -1.3000 ho         1 AGR       0.435000
     38 H2           5.3340    -1.4100    -0.4500 h1         1 AGR       0.052700
     39 H3           5.1140    -2.3330     1.7710 h1         1 AGR       0.054700
     40 H4           2.3950    -1.7190     1.4950 ho         1 AGR       0.454000
     41 H5           4.5860    -0.1780     2.9910 h1         1 AGR       0.050700
     42 H6           6.6450    -0.5430     1.9910 ho         1 AGR       0.394000
     43 H7           2.8070     0.6430     1.6710 h1         1 AGR       0.091700
     44 H8           4.3970     2.2750     2.6990 h1         1 AGR       0.025200
     45 H9           5.1420     2.4970     1.1140 h1         1 AGR       0.025200
     46 H10          3.4600     3.9990     1.3450 ho         1 AGR       0.396000
     47 H11          3.4920    -0.4670    -1.7290 h2         1 AGR       0.096700
     48 H12          0.5440    -2.8540    -0.9990 h1         1 AGR       0.047200
     49 H13         -0.1150    -2.0330    -2.4200 h1         1 AGR       0.047200
     50 H14          1.7500    -3.3010    -2.9540 ho         1 AGR       0.399000
     51 H15         -1.1270    -0.5750    -0.7860 h1         1 AGR       0.054700
     52 H16         -0.6750    -0.4190     1.6310 ho         1 AGR       0.497000
     53 H17         -0.4650     1.5130    -2.2790 h1         1 AGR       0.078700
     54 H18          0.7350     3.4920    -1.3670 h1         1 AGR       0.047200
     55 H19          2.2040     2.5240    -1.2120 h1         1 AGR       0.047200
     56 H20          2.1260     3.6190    -3.2500 ho         1 AGR       0.387000
     57 H21          0.7670     1.4400     0.4970 h1         1 AGR       0.066700
     58 H23         -2.9650    -0.5040     0.5680 h1         1 AGR       0.086700
     59 H24         -5.1990     0.8280    -1.0220 h1         1 AGR       0.032700
     60 H25         -3.6330     0.6770    -2.7090 ho         1 AGR       0.388000
     61 H26         -5.2820    -1.1720    -2.3460 h1         1 AGR       0.014700
     62 H27         -3.9590    -2.9440    -1.7080 ho         1 AGR       0.390000
     63 H28         -6.7290    -1.0470    -0.4440 h1         1 AGR       0.036200
     64 H29         -6.1490    -2.7090    -0.5530 h1         1 AGR       0.036200
     65 H30         -5.8190     0.3150     1.2760 h2         1 AGR       0.012700
     66 H31         -5.2500    -0.4750     3.2590 ho         1 AGR       0.399000
@<TRIPOS>BOND
     1     1     2 1   
     2     1    37 1   
     3     2     3 1   
     4     2    11 1   
     5     2    38 1   
     6     3     4 1   
     7     3     5 1   
     8     3    39 1   
     9     4    40 1   
    10     5     6 1   
    11     5     7 1   
    12     5    41 1   
    13     6    42 1   
    14     7     8 1   
    15     7    10 1   
    16     7    43 1   
    17     8     9 1   
    18     8    44 1   
    19     8    45 1   
    20     9    46 1   
    21    10    11 1   
    22    11    12 1   
    23    11    47 1   
    24    12    13 1   
    25    13    14 1   
    26    13    16 1   
    27    13    18 1   
    28    14    15 1   
    29    14    48 1   
    30    14    49 1   
    31    15    50 1   
    32    16    17 1   
    33    16    22 1   
    34    16    51 1   
    35    17    52 1   
    36    18    19 1   
    37    19    20 1   
    38    19    22 1   
    39    19    53 1   
    40    20    21 1   
    41    20    54 1   
    42    20    55 1   
    43    21    56 1   
    44    22    23 1   
    45    22    57 1   
    46    23    25 1   
    47    24    25 1   
    48    25    26 1   
    49    25    27 1   
    50    27    28 1   
    51    28    29 1   
    52    28    35 1   
    53    28    58 1   
    54    29    30 1   
    55    29    31 1   
    56    29    59 1   
    57    30    60 1   
    58    31    32 1   
    59    31    33 1   
    60    31    61 1   
    61    32    62 1   
    62    33    34 1   
    63    33    63 1   
    64    33    64 1   
    65    34    35 1   
    66    35    36 1   
    67    35    65 1   
    68    36    66 1   
@<TRIPOS>SUBSTRUCTURE
     1 AGR         1 TEMP              0 ****  ****    0 ROOT
