@<TRIPOS>MOLECULE
AGT
   34    33     1     0     0
SMALL
bcc


@<TRIPOS>ATOM
      1 O           25.1240    -3.6830    64.5370 o          1 AGT      -0.833800
      2 C           24.4650    -3.4100    65.5590 c          1 AGT       0.932600
      3 CA          24.4850    -1.9360    66.0280 c3         1 AGT       0.025500
      4 N           24.3830    -1.8710    67.4790 n8         1 AGT      -0.886800
      5 CB          25.7460    -1.2020    65.5910 c3         1 AGT       0.068700
      6 SG          25.8310    -0.9720    63.7910 ss         1 AGT      -0.290200
      7 CZ          26.2370     0.8150    63.7020 c3         1 AGT       0.463800
      8 NH2         25.1730     1.5970    64.2860 n8         1 AGT      -0.885800
      9 NE          27.4610     1.1020    64.4040 n7         1 AGT      -0.806200
     10 CD          28.6680     0.7410    63.6870 c3         1 AGT       0.166800
     11 CG          29.8810     0.7060    64.6090 c3         1 AGT      -0.062400
     12 CK          29.7630    -0.2800    65.7680 c3         1 AGT      -0.069400
     13 CJ          29.6150    -1.7300    65.3290 c3         1 AGT       0.143800
     14 NB          29.4720    -2.6070    66.4830 n8         1 AGT      -0.869800
     15 OXT         23.7620    -4.1950    66.2270 o          1 AGT      -0.833800
     16 HA          23.6320    -1.4430    65.5280 h1         1 AGT       0.002700
     17 HN1         24.0270    -0.9670    67.7600 hn         1 AGT       0.327300
     18 HN2         23.7040    -2.5610    67.7740 hn         1 AGT       0.327300
     19 HB          25.7650    -0.2030    66.0280 h1         1 AGT       0.068200
     20 HZ          26.3410     0.9790    62.6130 h3         1 AGT      -0.002300
     21 HH21        25.3170     2.5790    64.0770 hn         1 AGT       0.336800
     22 HH22        24.2940     1.3410    63.8560 hn         1 AGT       0.336800
     23 HE          27.4900     2.0820    64.6620 hn         1 AGT       0.344800
     24 HDC1        28.5130    -0.2460    63.2470 h1         1 AGT       0.030200
     25 HDC2        28.8730     1.4190    62.8440 h1         1 AGT       0.030200
     26 HGC1        30.7620     0.4640    64.0060 hc         1 AGT       0.022700
     27 HGC2        30.0590     1.7100    65.0080 hc         1 AGT       0.022700
     28 HKC1        30.6540    -0.1910    66.3990 hc         1 AGT       0.046200
     29 HKC2        28.9120    -0.0120    66.3990 hc         1 AGT       0.046200
     30 HJC1        28.7150    -1.8370    64.7190 h1         1 AGT       0.034700
     31 HJC2        30.4630    -1.9930    64.6780 h1         1 AGT       0.034700
     32 HBN1        29.3510    -3.5610    66.1690 hn         1 AGT       0.328300
     33 HBN2        30.3320    -2.6030    67.0180 hn         1 AGT       0.328300
     34 HB2         26.6350    -1.7310    65.9390 h1         1 AGT       0.068200
@<TRIPOS>BOND
     1     1     2 1   
     2     2     3 1   
     3     2    15 1   
     4     3     4 1   
     5     3     5 1   
     6     3    16 1   
     7     4    17 1   
     8     4    18 1   
     9     5     6 1   
    10     5    19 1   
    11     5    34 1   
    12     6     7 1   
    13     7     8 1   
    14     7     9 1   
    15     7    20 1   
    16     8    21 1   
    17     8    22 1   
    18     9    10 1   
    19     9    23 1   
    20    10    11 1   
    21    10    24 1   
    22    10    25 1   
    23    11    12 1   
    24    11    26 1   
    25    11    27 1   
    26    12    13 1   
    27    12    28 1   
    28    12    29 1   
    29    13    14 1   
    30    13    30 1   
    31    13    31 1   
    32    14    32 1   
    33    14    33 1   
@<TRIPOS>SUBSTRUCTURE
     1 AGT         1 TEMP              0 ****  ****    0 ROOT
