@<TRIPOS>MOLECULE
AGT
   34    33     1     0     0
SMALL
No Charge or Current Charge


@<TRIPOS>ATOM
      1 O           25.9450    -3.7470    64.9740 o          1 AGT      -0.728500
      2 C           24.7940    -3.3270    65.0200 c          1 AGT       0.722000
      3 CA          24.4670    -2.0680    65.9280 c3         1 AGT       0.025500
      4 N           24.4220    -2.3130    67.4220 n8         1 AGT      -0.997200
      5 CB          25.4020    -0.8810    65.5760 c3         1 AGT       0.116600
      6 SG          25.1450    -0.3210    63.8220 ss         1 AGT      -0.386000
      7 CZ          26.0850     1.2490    63.7810 c3         1 AGT       0.511700
      8 NH2         25.4160     2.1090    64.6840 n8         1 AGT      -0.996200
      9 NE          27.3670     1.0580    64.3720 n7         1 AGT      -0.861400
     10 CD          28.2950     0.2100    63.5990 c3         1 AGT       0.166800
     11 CG          29.7320     0.2940    64.1680 c3         1 AGT      -0.062400
     12 CK          29.9230    -0.2760    65.5970 c3         1 AGT      -0.069400
     13 CJ          29.6700    -1.7960    65.7040 c3         1 AGT       0.143800
     14 NB          29.9870    -2.3040    67.0540 n8         1 AGT      -0.980200
     15 OXT         23.8580    -3.9010    64.4770 o          1 AGT      -0.728500
     16 HA          23.4490    -1.7530    65.6620 h1         1 AGT       0.002700
     17 HN1         24.0560    -1.4790    67.8960 hn         1 AGT       0.382500
     18 HN2         23.7190    -3.0350    67.6230 hn         1 AGT       0.382500
     19 HB          25.1870    -0.0420    66.2490 h1         1 AGT       0.068200
     20 HZ          26.1040     1.6990    62.7820 h3         1 AGT      -0.002300
     21 HH21        25.5060     3.0620    64.3290 hn         1 AGT       0.392000
     22 HH22        24.4230     1.8900    64.6060 hn         1 AGT       0.392000
     23 HE          27.7780     1.9900    64.4040 hn         1 AGT       0.400000
     24 HDC1        27.9640    -0.8370    63.5940 h1         1 AGT       0.030200
     25 HDC2        28.3250     0.5480    62.5540 h1         1 AGT       0.030200
     26 HGC1        30.4060    -0.2400    63.4860 hc         1 AGT       0.022700
     27 HGC2        30.0570     1.3420    64.1590 hc         1 AGT       0.022700
     28 HKC1        30.9510    -0.0630    65.9140 hc         1 AGT       0.046200
     29 HKC2        29.2630     0.2540    66.2950 hc         1 AGT       0.046200
     30 HJC1        28.6170    -2.0160    65.4830 h1         1 AGT       0.034700
     31 HJC2        30.2960    -2.3270    64.9730 h1         1 AGT       0.034700
     32 HBN1        29.8520    -3.3220    67.0680 hn         1 AGT       0.383500
     33 HBN2        30.9930    -2.1890    67.2270 hn         1 AGT       0.383500
     34 HB2         26.4500    -1.1710    65.7210 h1         1 AGT       0.068200
@<TRIPOS>BOND
     1     1     2 1   
     2     2     3 1   
     3     2    15 1   
     4     3     4 1   
     5     3     5 1   
     6     3    16 1   
     7     4    17 1   
     8     4    18 1   
     9     5     6 1   
    10     5    19 1   
    11     5    34 1   
    12     6     7 1   
    13     7     8 1   
    14     7     9 1   
    15     7    20 1   
    16     8    21 1   
    17     8    22 1   
    18     9    10 1   
    19     9    23 1   
    20    10    11 1   
    21    10    24 1   
    22    10    25 1   
    23    11    12 1   
    24    11    26 1   
    25    11    27 1   
    26    12    13 1   
    27    12    28 1   
    28    12    29 1   
    29    13    14 1   
    30    13    30 1   
    31    13    31 1   
    32    14    32 1   
    33    14    33 1   
@<TRIPOS>SUBSTRUCTURE
     1 AGT         1 TEMP              0 ****  ****    0 ROOT
