@<TRIPOS>MOLECULE
AGU
   11    10     1     0     0
SMALL
abcg2


@<TRIPOS>ATOM
      1 C           -0.1300     0.0340    -0.5020 c2         1 AGU       0.779100
      2 N1          -1.4060    -0.0480    -0.4930 n2         1 AGU      -0.829100
      3 N2           0.6690     0.1700    -1.6210 nv         1 AGU      -1.071200
      4 N3           0.6160     0.0260     0.6550 nu         1 AGU      -0.686200
      5 N4          -0.0460     0.1140     1.8720 n8         1 AGU      -0.698000
      6 HN1         -1.7520    -0.1080    -1.4440 hn         1 AGU       0.370400
      7 HN21         0.2210    -0.0660    -2.4920 hn         1 AGU       0.450000
      8 HN22         1.5900    -0.2380    -1.5600 hn         1 AGU       0.450000
      9 HN3          1.4970     0.5190     0.5930 hn         1 AGU       0.444000
     10 HN41         0.4750    -0.4180     2.5540 hn         1 AGU       0.395500
     11 HN42        -0.0740     1.0750     2.1910 hn         1 AGU       0.395500
@<TRIPOS>BOND
     1     1     2 2   
     2     1     3 1   
     3     1     4 1   
     4     2     6 1   
     5     3     7 1   
     6     3     8 1   
     7     4     5 1   
     8     4     9 1   
     9     5    10 1   
    10     5    11 1   
@<TRIPOS>SUBSTRUCTURE
     1 AGU         1 TEMP              0 ****  ****    0 ROOT
