@<TRIPOS>MOLECULE
AGU
   11    10     1     0     0
SMALL
No Charge or Current Charge


@<TRIPOS>ATOM
      1 C           -0.1710     0.0850    -0.5620 c2         1 AGU       0.779100
      2 N1          -1.4210    -0.0100    -0.6140 n2         1 AGU      -0.829100
      3 N2           0.6660     0.0970    -1.5890 nv         1 AGU      -1.071200
      4 N3           0.5470     0.3050     0.5810 nu         1 AGU      -0.686200
      5 N4           0.0380     0.1280     1.9610 n8         1 AGU      -0.698000
      6 HN1         -1.6910    -0.1140    -1.5960 hn         1 AGU       0.370400
      7 HN21         0.2270    -0.1540    -2.4650 hn         1 AGU       0.450000
      8 HN22         1.5160    -0.4190    -1.4050 hn         1 AGU       0.450000
      9 HN3          1.4720     0.7080     0.4050 hn         1 AGU       0.444000
     10 HN41         0.5480    -0.5660     2.5330 hn         1 AGU       0.395500
     11 HN42        -0.0700     1.0010     2.5050 hn         1 AGU       0.395500
@<TRIPOS>BOND
     1     1     2 2   
     2     1     3 1   
     3     1     4 1   
     4     2     6 1   
     5     3     7 1   
     6     3     8 1   
     7     4     5 1   
     8     4     9 1   
     9     5    10 1   
    10     5    11 1   
@<TRIPOS>SUBSTRUCTURE
     1 AGU         1 TEMP              0 ****  ****    0 ROOT
