@<TRIPOS>MOLECULE
AGV
   37    39     1     0     0
SMALL
No Charge or Current Charge


@<TRIPOS>ATOM
      1 O5          -4.6250     2.1260     0.8320 oh         1 AGV      -0.646000
      2 C5          -3.3390     1.5910     1.1840 c3         1 AGV       0.131600
      3 C4          -2.6900     0.8100    -0.0080 c5         1 AGV       0.205500
      4 C3          -3.5510    -0.4550    -0.4260 c5         1 AGV       0.184300
      5 O3          -4.0910    -0.3900    -1.7530 oh         1 AGV      -0.620000
      6 N4          -1.3400     0.2100     0.2780 n3         1 AGV      -0.746600
      7 C1          -1.6460    -1.1200     0.8500 c5         1 AGV       0.148800
      8 C2          -2.5420    -1.6500    -0.3020 c5         1 AGV       0.125300
      9 O2          -1.7550    -1.7960    -1.4930 oh         1 AGV      -0.624000
     10 C7          -0.3560     1.0470     0.9920 c3         1 AGV       0.284000
     11 C9           1.0010     0.4010     1.0250 cc         1 AGV      -0.267000
     12 C8           1.6390    -0.1890     2.1170 cd         1 AGV      -0.147100
     13 N7           2.9080    -0.6830     1.7210 na         1 AGV      -0.203700
     14 C10          3.0180    -0.3800     0.3690 ca         1 AGV      -0.220200
     15 C11          1.9040     0.2680    -0.0790 ca         1 AGV       0.139800
     16 C6           4.0530    -0.6270    -0.5440 ca         1 AGV       0.379900
     17 N6           5.2050    -1.2710    -0.2130 nv         1 AGV      -1.067900
     18 N1           3.9410    -0.2300    -1.8260 nb         1 AGV      -0.266000
     19 C12          2.7900     0.4080    -2.1650 ca         1 AGV       0.133900
     20 N3           1.7430     0.6850    -1.3480 nb         1 AGV      -0.143000
     21 H1          -4.9580     2.6180     1.6160 ho         1 AGV       0.438000
     22 H2          -2.6720     2.4120     1.4750 h1         1 AGV       0.015200
     23 H3          -3.4350     0.9190     2.0470 h1         1 AGV       0.015200
     24 H4          -2.6170     1.5160    -0.8470 h1         1 AGV       0.105700
     25 H5          -4.3710    -0.6000     0.2910 h1         1 AGV       0.026700
     26 H6          -3.4370    -0.8860    -2.2980 ho         1 AGV       0.442000
     27 H8          -0.7490    -1.7390     0.9900 h1         1 AGV       0.033700
     28 H9          -2.1820    -1.0570     1.8080 h1         1 AGV       0.033700
     29 H10         -3.0440    -2.5920    -0.0420 h1         1 AGV       0.030700
     30 H11         -1.0770    -1.0880    -1.3870 ho         1 AGV       0.439000
     31 H12         -0.2650     2.0230     0.4960 h1         1 AGV       0.034700
     32 H13         -0.6870     1.2310     2.0240 h1         1 AGV       0.034700
     33 H14          1.2840    -0.2930     3.1400 h4         1 AGV       0.213000
     34 H15          3.5930    -1.1470     2.3110 hn         1 AGV       0.351000
     35 H16          5.2330    -1.8160     0.6440 hn         1 AGV       0.479000
     36 H17          5.8210    -1.5740    -0.9630 hn         1 AGV       0.479000
     37 H18          2.6970     0.7310    -3.2010 h5         1 AGV       0.047100
@<TRIPOS>BOND
     1     1     2 1   
     2     1    21 1   
     3     2     3 1   
     4     2    22 1   
     5     2    23 1   
     6     3     4 1   
     7     3     6 1   
     8     3    24 1   
     9     4     5 1   
    10     4     8 1   
    11     4    25 1   
    12     5    26 1   
    13     6     7 1   
    14     6    10 1   
    15     7     8 1   
    16     7    27 1   
    17     7    28 1   
    18     8     9 1   
    19     8    29 1   
    20     9    30 1   
    21    10    11 1   
    22    10    31 1   
    23    10    32 1   
    24    11    12 2   
    25    11    15 1   
    26    12    13 1   
    27    12    33 1   
    28    13    14 1   
    29    13    34 1   
    30    14    15 ar  
    31    14    16 ar  
    32    15    20 ar  
    33    16    17 1   
    34    16    18 ar  
    35    17    35 1   
    36    17    36 1   
    37    18    19 ar  
    38    19    20 ar  
    39    19    37 1   
@<TRIPOS>SUBSTRUCTURE
     1 AGV         1 TEMP              0 ****  ****    0 ROOT
