@<TRIPOS>MOLECULE
AGV
   37    39     1     0     0
SMALL
bcc


@<TRIPOS>ATOM
      1 O5          -4.5040     2.0390     0.6880 oh         1 AGV      -0.583800
      2 C5          -3.2250     1.6160     1.1020 c3         1 AGV       0.108400
      3 C4          -2.6000     0.8160    -0.0390 c5         1 AGV       0.205500
      4 C3          -3.4660    -0.4140    -0.3890 c5         1 AGV       0.161100
      5 O3          -4.2040    -0.1880    -1.5580 oh         1 AGV      -0.557800
      6 N4          -1.2950     0.2530     0.2740 n3         1 AGV      -0.746600
      7 C1          -1.4560    -1.1480     0.5820 c5         1 AGV       0.148800
      8 C2          -2.4790    -1.5850    -0.4520 c5         1 AGV       0.102100
      9 O2          -1.9470    -1.6610    -1.7520 oh         1 AGV      -0.561800
     10 C7          -0.3910     1.0210     1.0950 c3         1 AGV       0.284000
     11 C9           0.9810     0.4350     1.0900 cc         1 AGV      -0.267000
     12 C8           1.6350    -0.1360     2.1520 cd         1 AGV      -0.097100
     13 N7           2.8580    -0.5920     1.7710 na         1 AGV      -0.153400
     14 C10          3.0250    -0.3250     0.4420 ca         1 AGV      -0.350800
     15 C11          1.8690     0.3190    -0.0180 ca         1 AGV       0.468100
     16 C6           4.0670    -0.5680    -0.4660 ca         1 AGV       0.708200
     17 N6           5.2310    -1.1590    -0.1180 nv         1 AGV      -0.957500
     18 N1           3.9070    -0.1580    -1.7200 nb         1 AGV      -0.792000
     19 C12          2.7700     0.4640    -2.0530 ca         1 AGV       0.659900
     20 N3           1.7340     0.7310    -1.2940 nb         1 AGV      -0.669000
     21 H1          -4.8930     2.5560     1.3990 ho         1 AGV       0.399000
     22 H2          -2.5910     2.4750     1.3530 h1         1 AGV       0.015200
     23 H3          -3.2780     0.9850     2.0010 h1         1 AGV       0.015200
     24 H4          -2.5230     1.4780    -0.9120 h1         1 AGV       0.105700
     25 H5          -4.1360    -0.6170     0.4600 h1         1 AGV       0.026700
     26 H6          -4.7980    -0.9330    -1.6900 ho         1 AGV       0.403000
     27 H8          -0.5110    -1.6900     0.4950 h1         1 AGV       0.033700
     28 H9          -1.8390    -1.3460     1.5980 h1         1 AGV       0.033700
     29 H10         -2.9580    -2.5310    -0.1640 h1         1 AGV       0.030700
     30 H11         -1.1530    -2.2020    -1.7190 ho         1 AGV       0.400000
     31 H12         -0.3510     2.0380     0.6920 h1         1 AGV       0.034700
     32 H13         -0.7240     1.1150     2.1420 h1         1 AGV       0.034700
     33 H14          1.3040    -0.2510     3.1720 h4         1 AGV       0.163000
     34 H15          3.5220    -1.0260     2.3900 hn         1 AGV       0.300700
     35 H16          5.2810    -1.7140     0.7190 hn         1 AGV       0.423800
     36 H17          5.8310    -1.4630    -0.8670 hn         1 AGV       0.423800
     37 H18          2.7070     0.7810    -3.0900 h5         1 AGV       0.047100
@<TRIPOS>BOND
     1     1     2 1   
     2     1    21 1   
     3     2     3 1   
     4     2    22 1   
     5     2    23 1   
     6     3     4 1   
     7     3     6 1   
     8     3    24 1   
     9     4     5 1   
    10     4     8 1   
    11     4    25 1   
    12     5    26 1   
    13     6     7 1   
    14     6    10 1   
    15     7     8 1   
    16     7    27 1   
    17     7    28 1   
    18     8     9 1   
    19     8    29 1   
    20     9    30 1   
    21    10    11 1   
    22    10    31 1   
    23    10    32 1   
    24    11    12 2   
    25    11    15 1   
    26    12    13 1   
    27    12    33 1   
    28    13    14 1   
    29    13    34 1   
    30    14    15 ar  
    31    14    16 ar  
    32    15    20 ar  
    33    16    17 1   
    34    16    18 ar  
    35    17    35 1   
    36    17    36 1   
    37    18    19 ar  
    38    19    20 ar  
    39    19    37 1   
@<TRIPOS>SUBSTRUCTURE
     1 AGV         1 TEMP              0 ****  ****    0 ROOT
