@<TRIPOS>MOLECULE
AGW
   78    81     1     0     0
SMALL
abcg2


@<TRIPOS>ATOM
      1 CBH          1.9840    -0.6330     1.9880 c5         1 AGW       0.405000
      2 CAO          2.3310     0.0380     3.3090 c3         1 AGW       0.145600
      3 OAD          3.6710    -0.2560     3.6400 oh         1 AGW      -0.730000
      4 CBD          0.5560    -0.3130     1.5360 c5         1 AGW       0.123300
      5 OAR          2.0010    -2.0210     2.1360 os         1 AGW      -0.467000
      6 CBC          0.8770    -2.6370     1.5000 c5         1 AGW       0.150300
      7 CAN          1.2880    -3.8150     0.6550 c3         1 AGW       0.141600
      8 OAC          1.7920    -4.8290     1.4950 oh         1 AGW      -0.729000
      9 CBG          0.2110    -1.5300     0.6920 c5         1 AGW       0.194300
     10 OAU         -1.1650    -1.7530     0.5680 os         1 AGW      -0.569400
     11 P1          -1.8560    -1.4420    -0.9090 p5         1 AGW       1.408800
     12 OAL         -1.3570    -0.1220    -1.3950 o          1 AGW      -0.814000
     13 OBA         -3.4080    -1.3670    -0.3920 os         1 AGW      -0.577400
     14 CBO         -4.0900    -0.1400    -0.2440 c6         1 AGW       0.233300
     15 CBM         -4.9700    -0.2130     1.0000 c6         1 AGW       0.175300
     16 O14         -4.1670    -0.4060     2.1300 oh         1 AGW      -0.593000
     17 CBL         -5.8540     1.0320     1.0970 c6         1 AGW       0.093300
     18 O10         -5.0390     2.1470     1.3670 oh         1 AGW      -0.673000
     19 CBN         -6.6270     1.1810    -0.2050 c6         1 AGW       0.140600
     20 OAX         -5.7630     1.2360    -1.3140 os         1 AGW      -0.488000
     21 C8          -5.0050     0.0560    -1.4570 c6         1 AGW       0.362300
     22 OAH         -4.2500     0.1580    -2.6030 oh         1 AGW      -0.594000
     23 O2           5.3310     0.8900     1.6550 oh         1 AGW      -0.754000
     24 C2           5.1970     0.0550     0.5320 c6         1 AGW       0.113300
     25 C3           5.1160     0.9390    -0.7150 c6         1 AGW       0.146300
     26 O3           4.1240     1.9290    -0.6140 oh         1 AGW      -0.656000
     27 C4           4.8110     0.0870    -1.9530 c6         1 AGW       0.130300
     28 O4           5.9080    -0.7320    -2.2860 oh         1 AGW      -0.713000
     29 C5           3.6050    -0.7980    -1.6840 c6         1 AGW       0.169300
     30 C6           3.2790    -1.7180    -2.8410 c3         1 AGW       0.174600
     31 O6           2.0300    -2.3180    -2.5900 oh         1 AGW      -0.694000
     32 O5           3.8260    -1.6070    -0.5380 os         1 AGW      -0.443000
     33 C1           4.0060    -0.9060     0.6510 c6         1 AGW       0.373300
     34 O1           2.8580    -0.1800     0.9850 os         1 AGW      -0.493000
     35 O11         -1.5260     1.4240     1.5600 o          1 AGW      -0.482000
     36 O12          0.5180     0.8930     0.8130 os         1 AGW      -0.411100
     37 C11         -0.5640     2.7000    -0.1940 ca         1 AGW      -0.089600
     38 C12         -1.7200     3.4540    -0.3830 ca         1 AGW      -0.043000
     39 C13         -1.7300     4.4950    -1.2970 ca         1 AGW      -0.137500
     40 C14         -0.5830     4.7940    -2.0220 ca         1 AGW      -0.103000
     41 C15          0.5710     4.0430    -1.8370 ca         1 AGW      -0.137500
     42 C16          0.5830     2.9920    -0.9290 ca         1 AGW      -0.043000
     43 H1           2.1690     1.1170     3.2040 h1         1 AGW       0.040700
     44 H2           1.6430    -0.3260     4.0800 h1         1 AGW       0.040700
     45 H3           3.8700     0.1390     4.4960 ho         1 AGW       0.502000
     46 H4          -0.1080    -0.2770     2.4080 h1         1 AGW       0.085700
     47 H5           0.1870    -2.9780     2.2840 h1         1 AGW       0.074700
     48 H6           0.3940    -4.1460     0.1080 h1         1 AGW       0.058200
     49 H7           2.0200    -3.4900    -0.0910 h1         1 AGW       0.058200
     50 H8           2.0810    -5.5580     0.9400 ho         1 AGW       0.490000
     51 H9           0.7060    -1.4390    -0.2830 h1         1 AGW       0.085700
     52 H11         -3.3980     0.7030    -0.1670 h1         1 AGW       0.104700
     53 H12         -5.6610    -1.0620     0.8650 h1         1 AGW       0.022700
     54 H13         -4.7500    -0.5810     2.8760 ho         1 AGW       0.416000
     55 H14         -6.5900     0.8750     1.9020 h1         1 AGW       0.009700
     56 H15         -5.6030     2.9250     1.4170 ho         1 AGW       0.482000
     57 H16         -7.3400     0.3480    -0.2990 h1         1 AGW       0.032200
     58 H17         -7.2120     2.1040    -0.2030 h1         1 AGW       0.032200
     59 H18         -5.6980    -0.8050    -1.5130 h2         1 AGW       0.007700
     60 H19         -4.8090    -0.0410    -3.3610 ho         1 AGW       0.436000
     61 H20          4.8410     0.5110     2.4050 ho         1 AGW       0.541000
     62 H21          6.0820    -0.5840     0.4170 h1         1 AGW       0.055700
     63 H22          6.1030     1.4110    -0.8540 h1         1 AGW       0.024700
     64 H23          4.0070     2.1360     0.3210 ho         1 AGW       0.471000
     65 H24          4.5590     0.7670    -2.7800 h1         1 AGW       0.052700
     66 H25          6.6590    -0.1630    -2.4850 ho         1 AGW       0.491000
     67 H26          2.7440    -0.1370    -1.5250 h1         1 AGW       0.104700
     68 H27          3.2620    -1.1140    -3.7580 h1         1 AGW       0.020700
     69 H28          4.0730    -2.4640    -2.9620 h1         1 AGW       0.020700
     70 H29          1.8500    -2.9490    -3.2920 ho         1 AGW       0.504000
     71 H30          4.2320    -1.6660     1.4030 h2         1 AGW       0.095700
     72 H31         -2.6160     3.2120     0.1760 ha         1 AGW       0.140500
     73 H32         -2.6320     5.0740    -1.4460 ha         1 AGW       0.101000
     74 H33         -0.5890     5.6100    -2.7340 ha         1 AGW       0.092000
     75 H34          1.4630     4.2730    -2.4040 ha         1 AGW       0.101000
     76 H35          1.4850     2.4090    -0.7990 ha         1 AGW       0.140500
     77 C           -0.6060     1.6050     0.8060 c          1 AGW       0.634700
     78 O15         -1.7530    -2.6840    -1.7380 o          1 AGW      -0.814000
@<TRIPOS>BOND
     1     1     2 1   
     2     1     4 1   
     3     1     5 1   
     4     1    34 1   
     5     2     3 1   
     6     2    43 1   
     7     2    44 1   
     8     3    45 1   
     9     4     9 1   
    10     4    36 1   
    11     4    46 1   
    12     5     6 1   
    13     6     7 1   
    14     6     9 1   
    15     6    47 1   
    16     7     8 1   
    17     7    48 1   
    18     7    49 1   
    19     8    50 1   
    20     9    10 1   
    21     9    51 1   
    22    10    11 1   
    23    11    12 1   
    24    11    13 1   
    25    11    78 1   
    26    13    14 1   
    27    14    15 1   
    28    14    21 1   
    29    14    52 1   
    30    15    16 1   
    31    15    17 1   
    32    15    53 1   
    33    16    54 1   
    34    17    18 1   
    35    17    19 1   
    36    17    55 1   
    37    18    56 1   
    38    19    20 1   
    39    19    57 1   
    40    19    58 1   
    41    20    21 1   
    42    21    22 1   
    43    21    59 1   
    44    22    60 1   
    45    23    24 1   
    46    23    61 1   
    47    24    25 1   
    48    24    33 1   
    49    24    62 1   
    50    25    26 1   
    51    25    27 1   
    52    25    63 1   
    53    26    64 1   
    54    27    28 1   
    55    27    29 1   
    56    27    65 1   
    57    28    66 1   
    58    29    30 1   
    59    29    32 1   
    60    29    67 1   
    61    30    31 1   
    62    30    68 1   
    63    30    69 1   
    64    31    70 1   
    65    32    33 1   
    66    33    34 1   
    67    33    71 1   
    68    35    77 2   
    69    36    77 1   
    70    37    38 ar  
    71    37    42 ar  
    72    37    77 1   
    73    38    39 ar  
    74    38    72 1   
    75    39    40 ar  
    76    39    73 1   
    77    40    41 ar  
    78    40    74 1   
    79    41    42 ar  
    80    41    75 1   
    81    42    76 1   
@<TRIPOS>SUBSTRUCTURE
     1 AGW         1 TEMP              0 ****  ****    0 ROOT
