@<TRIPOS>MOLECULE
AGW
   78    81     1     0     0
SMALL
No Charge or Current Charge


@<TRIPOS>ATOM
      1 CBH          1.5570    -1.0300     1.6620 c5         1 AGW       0.405000
      2 CAO          2.0110    -1.0040     3.1720 c3         1 AGW       0.145600
      3 OAD          3.1930    -1.7880     3.4700 oh         1 AGW      -0.730000
      4 CBD          0.2230    -0.1880     1.4650 c5         1 AGW       0.123300
      5 OAR          1.2270    -2.3760     1.2410 os         1 AGW      -0.467000
      6 CBC          0.1340    -2.3300     0.2870 c5         1 AGW       0.150300
      7 CAN          0.6160    -2.0010    -1.1640 c3         1 AGW       0.141600
      8 OAC          1.4130    -3.0580    -1.7270 oh         1 AGW      -0.729000
      9 CBG         -0.7940    -1.2210     0.8780 c5         1 AGW       0.194300
     10 OAU         -1.5780    -1.7380     1.9860 os         1 AGW      -0.569400
     11 P1          -2.8560    -2.6660     1.6580 p5         1 AGW       1.408800
     12 OAL         -2.8810    -3.1280     0.2440 o          1 AGW      -0.814000
     13 OBA         -4.0260    -1.5910     1.9040 os         1 AGW      -0.577400
     14 CBO         -4.4710    -0.6930     0.8510 c6         1 AGW       0.233300
     15 CBM         -5.0370     0.6320     1.4660 c6         1 AGW       0.175300
     16 O14         -4.0840     1.2930     2.3210 oh         1 AGW      -0.593000
     17 CBL         -5.5260     1.5900     0.3370 c6         1 AGW       0.093300
     18 O10         -4.4140     2.0300    -0.4690 oh         1 AGW      -0.673000
     19 CBN         -6.5740     0.8280    -0.5250 c6         1 AGW       0.140600
     20 OAX         -5.9870    -0.3640    -1.0910 os         1 AGW      -0.488000
     21 C8          -5.5650    -1.3230    -0.1040 c6         1 AGW       0.362300
     22 OAH         -5.1290    -2.4650    -0.8400 oh         1 AGW      -0.594000
     23 O2           4.8400     0.1040     2.5200 oh         1 AGW      -0.754000
     24 C2           5.0500    -0.3680     1.1630 c6         1 AGW       0.113300
     25 C3           5.4080     0.8360     0.2280 c6         1 AGW       0.146300
     26 O3           4.4260     1.8690     0.3860 oh         1 AGW      -0.656000
     27 C4           5.5170     0.3750    -1.2620 c6         1 AGW       0.130300
     28 O4           6.6880    -0.4580    -1.4370 oh         1 AGW      -0.713000
     29 C5           4.2080    -0.3920    -1.6490 c6         1 AGW       0.169300
     30 C6           4.2150    -0.8970    -3.1290 c3         1 AGW       0.174600
     31 O6           3.0470    -1.6690    -3.4750 oh         1 AGW      -0.694000
     32 O5           4.0140    -1.5360    -0.7770 os         1 AGW      -0.443000
     33 C1           3.8240    -1.1980     0.6120 c6         1 AGW       0.373300
     34 O1           2.5650    -0.4970     0.7520 os         1 AGW      -0.493000
     35 O11         -1.6230     1.7680     1.0770 o          1 AGW      -0.482000
     36 O12          0.4160     0.8920     0.4930 os         1 AGW      -0.411100
     37 C11         -0.3300     2.9050    -0.6030 ca         1 AGW      -0.089600
     38 C12         -1.3080     3.8950    -0.8480 ca         1 AGW      -0.043000
     39 C13         -1.0720     4.9150    -1.7860 ca         1 AGW      -0.137500
     40 C14          0.1420     4.9620    -2.4880 ca         1 AGW      -0.103000
     41 C15          1.1230     3.9870    -2.2510 ca         1 AGW      -0.137500
     42 C16          0.8930     2.9640    -1.3140 ca         1 AGW      -0.043000
     43 H1           2.1820     0.0440     3.4510 h1         1 AGW       0.040700
     44 H2           1.1700    -1.3540     3.7860 h1         1 AGW       0.040700
     45 H3           2.8990    -2.7320     3.5160 ho         1 AGW       0.502000
     46 H4          -0.1250     0.2350     2.4170 h1         1 AGW       0.085700
     47 H5          -0.3530    -3.3120     0.2620 h1         1 AGW       0.074700
     48 H6          -0.2750    -1.8420    -1.7870 h1         1 AGW       0.058200
     49 H7           1.1710    -1.0550    -1.1750 h1         1 AGW       0.058200
     50 H8           2.1120    -2.6010    -2.2730 ho         1 AGW       0.490000
     51 H9          -1.4570    -0.7870     0.1190 h1         1 AGW       0.085700
     52 H11         -3.6110    -0.4220     0.2230 h1         1 AGW       0.104700
     53 H12         -5.9160     0.3610     2.0700 h1         1 AGW       0.022700
     54 H13         -3.3340     1.5620     1.7390 ho         1 AGW       0.416000
     55 H14         -6.0180     2.4600     0.7950 h1         1 AGW       0.009700
     56 H15         -4.7900     2.4670    -1.2670 ho         1 AGW       0.482000
     57 H16         -7.4440     0.5480     0.0890 h1         1 AGW       0.032200
     58 H17         -6.9320     1.4710    -1.3410 h1         1 AGW       0.032200
     59 H18         -6.4340    -1.6100     0.5040 h2         1 AGW       0.007700
     60 H19         -4.2590    -2.7500    -0.4430 ho         1 AGW       0.436000
     61 H20          4.2790    -0.5970     2.9720 ho         1 AGW       0.541000
     62 H21          5.9110    -1.0520     1.1550 h1         1 AGW       0.055700
     63 H22          6.3860     1.2300     0.5400 h1         1 AGW       0.024700
     64 H23          4.0770     1.7100     1.2940 ho         1 AGW       0.471000
     65 H24          5.5970     1.2680    -1.9000 h1         1 AGW       0.052700
     66 H25          7.4760     0.1280    -1.3670 ho         1 AGW       0.491000
     67 H26          3.3500     0.2880    -1.5430 h1         1 AGW       0.104700
     68 H27          4.2890    -0.0190    -3.7850 h1         1 AGW       0.020700
     69 H28          5.1160    -1.5030    -3.2910 h1         1 AGW       0.020700
     70 H29          3.1150    -1.8590    -4.4400 ho         1 AGW       0.504000
     71 H30          3.7760    -2.1470     1.1650 h2         1 AGW       0.095700
     72 H31         -2.2550     3.8740    -0.3120 ha         1 AGW       0.140500
     73 H32         -1.8330     5.6710    -1.9670 ha         1 AGW       0.101000
     74 H33          0.3230     5.7530    -3.2130 ha         1 AGW       0.092000
     75 H34          2.0660     4.0230    -2.7920 ha         1 AGW       0.101000
     76 H35          1.6720     2.2230    -1.1450 ha         1 AGW       0.140500
     77 C           -0.5990     1.8150     0.4070 c          1 AGW       0.634700
     78 O15         -2.9600    -3.7960     2.6230 o          1 AGW      -0.814000
@<TRIPOS>BOND
     1     1     2 1   
     2     1     4 1   
     3     1     5 1   
     4     1    34 1   
     5     2     3 1   
     6     2    43 1   
     7     2    44 1   
     8     3    45 1   
     9     4     9 1   
    10     4    36 1   
    11     4    46 1   
    12     5     6 1   
    13     6     7 1   
    14     6     9 1   
    15     6    47 1   
    16     7     8 1   
    17     7    48 1   
    18     7    49 1   
    19     8    50 1   
    20     9    10 1   
    21     9    51 1   
    22    10    11 1   
    23    11    12 1   
    24    11    13 1   
    25    11    78 1   
    26    13    14 1   
    27    14    15 1   
    28    14    21 1   
    29    14    52 1   
    30    15    16 1   
    31    15    17 1   
    32    15    53 1   
    33    16    54 1   
    34    17    18 1   
    35    17    19 1   
    36    17    55 1   
    37    18    56 1   
    38    19    20 1   
    39    19    57 1   
    40    19    58 1   
    41    20    21 1   
    42    21    22 1   
    43    21    59 1   
    44    22    60 1   
    45    23    24 1   
    46    23    61 1   
    47    24    25 1   
    48    24    33 1   
    49    24    62 1   
    50    25    26 1   
    51    25    27 1   
    52    25    63 1   
    53    26    64 1   
    54    27    28 1   
    55    27    29 1   
    56    27    65 1   
    57    28    66 1   
    58    29    30 1   
    59    29    32 1   
    60    29    67 1   
    61    30    31 1   
    62    30    68 1   
    63    30    69 1   
    64    31    70 1   
    65    32    33 1   
    66    33    34 1   
    67    33    71 1   
    68    35    77 2   
    69    36    77 1   
    70    37    38 ar  
    71    37    42 ar  
    72    37    77 1   
    73    38    39 ar  
    74    38    72 1   
    75    39    40 ar  
    76    39    73 1   
    77    40    41 ar  
    78    40    74 1   
    79    41    42 ar  
    80    41    75 1   
    81    42    76 1   
@<TRIPOS>SUBSTRUCTURE
     1 AGW         1 TEMP              0 ****  ****    0 ROOT
