@<TRIPOS>MOLECULE
AGX
   36    38     1     0     0
SMALL
No Charge or Current Charge


@<TRIPOS>ATOM
      1 C            5.8530    -1.2200    -1.5040 ca         1 AGX      -0.116000
      2 N            3.7630    -0.8000    -0.2090 na         1 AGX      -0.300600
      3 O            1.0830    -0.2330     0.6110 os         1 AGX      -0.482100
      4 Cl          -5.8060     0.9860     1.4530 cl         1 AGX      -0.165000
      5 C1           7.1510    -0.7220    -1.7430 ca         1 AGX      -0.090000
      6 N1           4.4750     1.1100     0.8790 nc         1 AGX      -0.569100
      7 O1          -0.5790     0.9230     1.6990 o          1 AGX      -0.506000
      8 Cl1         -6.9770    -0.9080    -0.8890 cl         1 AGX      -0.167000
      9 C2           7.5950     0.4470    -1.0810 ca         1 AGX      -0.134000
     10 N2          -1.0390    -0.6080     0.0110 ns         1 AGX      -0.138000
     11 C3           6.7450     1.1230    -0.1780 ca         1 AGX      -0.046000
     12 C4           5.0410    -0.5210    -0.6020 ca         1 AGX      -0.078200
     13 C5           5.4580     0.6090     0.0440 ca         1 AGX       0.068400
     14 C6           3.4660     0.2300     0.6960 cd         1 AGX       0.402800
     15 C7           2.1340     0.3510     1.4230 c3         1 AGX       0.188000
     16 C9          -2.4500    -0.6360    -0.1540 ca         1 AGX       0.005000
     17 C10         -2.9730    -1.4590    -1.1700 ca         1 AGX      -0.162000
     18 C11         -4.3590    -1.5370    -1.3890 ca         1 AGX      -0.065000
     19 C12         -5.2410    -0.7910    -0.5920 ca         1 AGX       0.089000
     20 C13         -4.7290     0.0350     0.4290 ca         1 AGX       0.147000
     21 C14         -3.3420     0.1110     0.6460 ca         1 AGX      -0.128000
     22 C15          2.1530    -0.3840     2.7840 c3         1 AGX      -0.107100
     23 H            5.4970    -2.1180    -2.0060 ha         1 AGX       0.117000
     24 H1           7.8110    -1.2370    -2.4370 ha         1 AGX       0.114000
     25 H2           8.5970     0.8280    -1.2680 ha         1 AGX       0.115000
     26 HN2         -0.5350    -1.2230    -0.6130 hn         1 AGX       0.169000
     27 H3           7.0770     2.0210     0.3350 ha         1 AGX       0.130000
     28 H7           1.9510     1.4210     1.5900 h1         1 AGX       0.088700
     29 H10         -2.3020    -2.0440    -1.7960 ha         1 AGX       0.120000
     30 H11         -4.7510    -2.1760    -2.1770 ha         1 AGX       0.134000
     31 H14         -2.9860     0.7560     1.4430 ha         1 AGX       0.167000
     32 H15          2.3020    -1.4610     2.6410 hc         1 AGX       0.061700
     33 H15A         2.9730    -0.0060     3.4070 hc         1 AGX       0.061700
     34 H15B         1.2180    -0.2320     3.3340 hc         1 AGX       0.061700
     35 HN           3.1480    -1.5480    -0.5010 hn         1 AGX       0.362000
     36 C8          -0.2200     0.1010     0.8680 c          1 AGX       0.653100
@<TRIPOS>BOND
     1     1     5 ar  
     2     1    12 ar  
     3     1    23 1   
     4     2    12 1   
     5     2    14 1   
     6     2    35 1   
     7     3    15 1   
     8     3    36 1   
     9     4    20 1   
    10     5     9 ar  
    11     5    24 1   
    12     6    13 1   
    13     6    14 2   
    14     7    36 2   
    15     8    19 1   
    16     9    11 ar  
    17     9    25 1   
    18    10    16 1   
    19    10    26 1   
    20    10    36 1   
    21    11    13 ar  
    22    11    27 1   
    23    12    13 ar  
    24    14    15 1   
    25    15    22 1   
    26    15    28 1   
    27    16    17 ar  
    28    16    21 ar  
    29    17    18 ar  
    30    17    29 1   
    31    18    19 ar  
    32    18    30 1   
    33    19    20 ar  
    34    20    21 ar  
    35    21    31 1   
    36    22    32 1   
    37    22    33 1   
    38    22    34 1   
@<TRIPOS>SUBSTRUCTURE
     1 AGX         1 TEMP              0 ****  ****    0 ROOT
