@<TRIPOS>MOLECULE
AGX
   36    38     1     0     0
SMALL
abcg2


@<TRIPOS>ATOM
      1 C            5.3720    -0.5040    -2.0670 ca         1 AGX      -0.116000
      2 N            3.4160    -0.1200    -0.5120 na         1 AGX      -0.300600
      3 O            1.1210    -0.3680     0.8920 os         1 AGX      -0.482100
      4 CL          -5.5230     1.2990     0.6700 cl         1 AGX      -0.165000
      5 C1           6.7550    -0.4570    -2.0630 ca         1 AGX      -0.090000
      6 N1           4.5550     0.4250     1.3120 nc         1 AGX      -0.569100
      7 O1          -0.5560     1.0660     1.3490 o          1 AGX      -0.506000
      8 CL1         -6.6550    -1.0380    -1.1100 cl         1 AGX      -0.167000
      9 C2           7.4750    -0.1040    -0.9120 ca         1 AGX      -0.134000
     10 N2          -0.9000    -0.8960     0.2210 ns         1 AGX      -0.138000
     11 C3           6.8330     0.2110     0.2720 ca         1 AGX      -0.046000
     12 C4           4.7350    -0.1810    -0.8750 ca         1 AGX      -0.078200
     13 C5           5.4390     0.1710     0.2890 ca         1 AGX       0.068400
     14 C6           3.3740     0.2420     0.7940 cd         1 AGX       0.402800
     15 C7           2.0870     0.4760     1.5260 c3         1 AGX       0.188000
     16 C9          -2.2640    -0.8620    -0.0550 ca         1 AGX       0.005000
     17 C10         -2.7750    -1.8970    -0.8410 ca         1 AGX      -0.162000
     18 C11         -4.1170    -1.9480    -1.1580 ca         1 AGX      -0.065000
     19 C12         -4.9840    -0.9660    -0.7020 ca         1 AGX       0.089000
     20 C13         -4.4780     0.0620     0.0800 ca         1 AGX       0.147000
     21 C14         -3.1320     0.1250     0.4080 ca         1 AGX      -0.128000
     22 C15          2.1980     0.1710     3.0050 c3         1 AGX      -0.107100
     23 H            4.8190    -0.7790    -2.9550 ha         1 AGX       0.117000
     24 H1           7.2940    -0.7000    -2.9700 ha         1 AGX       0.114000
     25 H2           8.5560    -0.0800    -0.9550 ha         1 AGX       0.115000
     26 HN2         -0.4030    -1.6980    -0.1400 hn         1 AGX       0.169000
     27 H3           7.3910     0.4820     1.1600 ha         1 AGX       0.130000
     28 H7           1.8020     1.5230     1.3840 h1         1 AGX       0.088700
     29 H10         -2.1170    -2.6720    -1.2140 ha         1 AGX       0.120000
     30 H11         -4.4930    -2.7580    -1.7670 ha         1 AGX       0.134000
     31 H14         -2.7810     0.9420     1.0170 ha         1 AGX       0.167000
     32 H15          2.4580    -0.8740     3.1730 hc         1 AGX       0.061700
     33 H15A         2.9720     0.7920     3.4500 hc         1 AGX       0.061700
     34 H15B         1.2590     0.3900     3.5110 hc         1 AGX       0.061700
     35 HN           2.6240    -0.3230    -1.1010 hn         1 AGX       0.362000
     36 C8          -0.1540     0.0350     0.8680 c          1 AGX       0.653100
@<TRIPOS>BOND
     1     1     5 ar  
     2     1    12 ar  
     3     1    23 1   
     4     2    12 1   
     5     2    14 1   
     6     2    35 1   
     7     3    15 1   
     8     3    36 1   
     9     4    20 1   
    10     5     9 ar  
    11     5    24 1   
    12     6    13 1   
    13     6    14 2   
    14     7    36 2   
    15     8    19 1   
    16     9    11 ar  
    17     9    25 1   
    18    10    16 1   
    19    10    26 1   
    20    10    36 1   
    21    11    13 ar  
    22    11    27 1   
    23    12    13 ar  
    24    14    15 1   
    25    15    22 1   
    26    15    28 1   
    27    16    17 ar  
    28    16    21 ar  
    29    17    18 ar  
    30    17    29 1   
    31    18    19 ar  
    32    18    30 1   
    33    19    20 ar  
    34    20    21 ar  
    35    21    31 1   
    36    22    32 1   
    37    22    33 1   
    38    22    34 1   
@<TRIPOS>SUBSTRUCTURE
     1 AGX         1 TEMP              0 ****  ****    0 ROOT
