@<TRIPOS>MOLECULE
AGY
   52    54     1     0     0
SMALL
No Charge or Current Charge


@<TRIPOS>ATOM
      1 C1           3.7360    -0.5450     0.4220 ca         1 AGY      -0.043000
      2 N1           2.9310     1.4250    -0.8020 ns         1 AGY      -0.171000
      3 O1           3.7550     3.5300    -1.3200 o          1 AGY      -0.596100
      4 C2           4.0110     0.6690    -0.2650 ca         1 AGY      -0.025000
      5 N2           1.5740     3.0590    -1.7470 ns         1 AGY      -0.362500
      6 O2           0.1280     2.5000     0.6140 o          1 AGY      -0.551100
      7 C3           4.8050    -1.3110     0.9500 ca         1 AGY      -0.030000
      8 N3           0.4040     2.2320    -1.6280 ns         1 AGY      -0.385500
      9 O3          -4.3850     0.1520     2.5690 o          1 AGY      -0.383500
     10 C4           2.4100    -1.0120     0.6030 ca         1 AGY      -0.098000
     11 N4          -3.5780    -0.6720     2.1210 no         1 AGY       0.689200
     12 O4          -2.9190    -1.4320     2.8410 o          1 AGY      -0.383500
     13 C5           5.3540     1.0830    -0.4170 ca         1 AGY      -0.098000
     14 C6           6.1320    -0.8770     0.7940 ca         1 AGY      -0.102000
     15 C7           4.5470    -2.5140     1.6360 ca         1 AGY      -0.099000
     16 C8           2.1630    -2.2130     1.2890 ca         1 AGY      -0.105000
     17 C9           6.4040     0.3160     0.1110 ca         1 AGY      -0.098000
     18 C10          2.8370     2.7220    -1.2860 c          1 AGY       0.655100
     19 C11          3.2290    -2.9640     1.8050 ca         1 AGY      -0.105000
     20 C12         -0.2270     1.9560    -0.4230 c          1 AGY       0.592700
     21 C13         -1.3500     0.9410    -0.4510 ca         1 AGY      -0.161600
     22 C14         -1.9780     0.5730     0.7520 ca         1 AGY      -0.020000
     23 C15         -1.7910     0.3290    -1.6390 ca         1 AGY      -0.058000
     24 C16         -3.0180    -0.3820     0.7820 ca         1 AGY      -0.159200
     25 C17         -2.8260    -0.6200    -1.6190 ca         1 AGY      -0.125000
     26 C18         -3.4750    -1.0120    -0.4170 ca         1 AGY       0.023700
     27 C19         -4.6260    -2.0840    -0.4490 c3         1 AGY      -0.004700
     28 C20         -5.9570    -1.4840     0.0870 c3         1 AGY      -0.093767
     29 C21         -4.9310    -2.5990    -1.8890 c3         1 AGY      -0.093767
     30 C22         -4.2350    -3.3360     0.3860 c3         1 AGY      -0.093767
     31 HN1          2.0570     0.9210    -0.8390 hn         1 AGY       0.162000
     32 HN2          1.4340     4.0210    -2.0430 hn         1 AGY       0.331500
     33 HN3          0.1040     1.7350    -2.4620 hn         1 AGY       0.344500
     34 H4           1.5580    -0.4580     0.2220 ha         1 AGY       0.115000
     35 H5           5.6060     1.9910    -0.9540 ha         1 AGY       0.127000
     36 H6           6.9540    -1.4640     1.1980 ha         1 AGY       0.115000
     37 H7           5.3690    -3.1010     2.0400 ha         1 AGY       0.114000
     38 H8           1.1400    -2.5610     1.4210 ha         1 AGY       0.115000
     39 H9           7.4330     0.6460    -0.0150 ha         1 AGY       0.117000
     40 H11          3.0340    -3.8940     2.3360 ha         1 AGY       0.114000
     41 H14         -1.6550     1.0290     1.6880 ha         1 AGY       0.162000
     42 H15         -1.3460     0.5750    -2.6000 ha         1 AGY       0.122000
     43 H17         -3.1010    -1.0400    -2.5800 ha         1 AGY       0.132000
     44 H120        -6.1720    -0.5240    -0.3990 hc         1 AGY       0.045700
     45 H220        -6.8000    -2.1560    -0.1130 hc         1 AGY       0.045700
     46 H320        -5.9410    -1.3260     1.1680 hc         1 AGY       0.045700
     47 H121        -4.0520    -3.0840    -2.3330 hc         1 AGY       0.045700
     48 H221        -5.7380    -3.3420    -1.8820 hc         1 AGY       0.045700
     49 H321        -5.2540    -1.7810    -2.5450 hc         1 AGY       0.045700
     50 H122        -4.2370    -3.1400     1.4610 hc         1 AGY       0.045700
     51 H222        -4.9450    -4.1560     0.2200 hc         1 AGY       0.045700
     52 H322        -3.2380    -3.6940     0.1030 hc         1 AGY       0.045700
@<TRIPOS>BOND
     1     1     4 ar  
     2     1     7 ar  
     3     1    10 ar  
     4     2     4 1   
     5     2    18 1   
     6     2    31 1   
     7     3    18 2   
     8     4    13 ar  
     9     5     8 1   
    10     5    18 1   
    11     5    32 1   
    12     6    20 2   
    13     7    14 ar  
    14     7    15 ar  
    15     8    20 1   
    16     8    33 1   
    17     9    11 1   
    18    10    16 ar  
    19    10    34 1   
    20    11    12 1   
    21    11    24 1   
    22    13    17 ar  
    23    13    35 1   
    24    14    17 ar  
    25    14    36 1   
    26    15    19 ar  
    27    15    37 1   
    28    16    19 ar  
    29    16    38 1   
    30    17    39 1   
    31    19    40 1   
    32    20    21 1   
    33    21    22 ar  
    34    21    23 ar  
    35    22    24 ar  
    36    22    41 1   
    37    23    25 ar  
    38    23    42 1   
    39    24    26 ar  
    40    25    26 ar  
    41    25    43 1   
    42    26    27 1   
    43    27    28 1   
    44    27    29 1   
    45    27    30 1   
    46    28    44 1   
    47    28    45 1   
    48    28    46 1   
    49    29    47 1   
    50    29    48 1   
    51    29    49 1   
    52    30    50 1   
    53    30    51 1   
    54    30    52 1   
@<TRIPOS>SUBSTRUCTURE
     1 AGY         1 TEMP              0 ****  ****    0 ROOT
