@<TRIPOS>MOLECULE
AGY
   52    54     1     0     0
SMALL
abcg2


@<TRIPOS>ATOM
      1 C1           4.1690    -0.5070     0.4970 ca         1 AGY      -0.043000
      2 N1           2.8850     1.0820    -0.8320 ns         1 AGY      -0.171000
      3 O1           3.4870     3.2360    -0.4000 o          1 AGY      -0.596100
      4 C2           4.1230     0.4880    -0.5190 ca         1 AGY      -0.025000
      5 N2           1.3800     2.8150    -1.0880 ns         1 AGY      -0.362500
      6 O2           0.0560     1.9250     1.0940 o          1 AGY      -0.551100
      7 C3           5.4060    -1.1560     0.7580 ca         1 AGY      -0.030000
      8 N3           0.3520     1.9190    -1.1450 ns         1 AGY      -0.385500
      9 O3          -5.0270     0.8380     1.9860 o          1 AGY      -0.383500
     10 C4           3.0340    -0.8730     1.2600 ca         1 AGY      -0.098000
     11 N4          -4.4260    -0.1900     1.7970 no         1 AGY       0.689200
     12 O4          -4.4740    -1.1590     2.5150 o          1 AGY      -0.383500
     13 C5           5.2600     0.8370    -1.1990 ca         1 AGY      -0.098000
     14 C6           6.5610    -0.7680     0.0400 ca         1 AGY      -0.102000
     15 C7           5.4560    -2.1690     1.7440 ca         1 AGY      -0.099000
     16 C8           3.1180    -1.8530     2.2110 ca         1 AGY      -0.105000
     17 C9           6.4880     0.2160    -0.9070 ca         1 AGY      -0.098000
     18 C10          2.6520     2.4150    -0.7330 c          1 AGY       0.655100
     19 C11          4.3380    -2.5160     2.4510 ca         1 AGY      -0.105000
     20 C12         -0.3000     1.5520    -0.0040 c          1 AGY       0.592700
     21 C13         -1.4610     0.6410    -0.2010 ca         1 AGY      -0.161600
     22 C14         -2.4400     0.6140     0.7790 ca         1 AGY      -0.020000
     23 C15         -1.5980    -0.2090    -1.2910 ca         1 AGY      -0.058000
     24 C16         -3.5210    -0.2390     0.6500 ca         1 AGY      -0.159200
     25 C17         -2.7040    -1.0320    -1.4030 ca         1 AGY      -0.125000
     26 C18         -3.7260    -1.0780    -0.4500 ca         1 AGY       0.023700
     27 C19         -4.9300    -2.0020    -0.6740 c3         1 AGY      -0.004700
     28 C20         -6.2510    -1.4050    -0.1610 c3         1 AGY      -0.093767
     29 C21         -5.1340    -2.2640    -2.1740 c3         1 AGY      -0.093767
     30 C22         -4.6550    -3.3500     0.0080 c3         1 AGY      -0.093767
     31 HN1          2.1280     0.4740    -1.1080 hn         1 AGY       0.162000
     32 HN2          1.1360     3.7570    -0.8130 hn         1 AGY       0.331500
     33 HN3         -0.0790     1.8010    -2.0500 hn         1 AGY       0.344500
     34 H4           2.0930    -0.3620     1.1060 ha         1 AGY       0.115000
     35 H5           5.2130     1.5830    -1.9810 ha         1 AGY       0.127000
     36 H6           7.5020    -1.2610     0.2500 ha         1 AGY       0.115000
     37 H7           6.4000    -2.6670     1.9320 ha         1 AGY       0.114000
     38 H8           2.2420    -2.1180     2.7900 ha         1 AGY       0.115000
     39 H9           7.3730     0.5100    -1.4560 ha         1 AGY       0.117000
     40 H11          4.3880    -3.2930     3.2030 ha         1 AGY       0.114000
     41 H14         -2.3520     1.2500     1.6510 ha         1 AGY       0.162000
     42 H15         -0.8430    -0.2620    -2.0640 ha         1 AGY       0.122000
     43 H17         -2.7600    -1.6600    -2.2780 ha         1 AGY       0.132000
     44 H120        -6.3850    -0.3720    -0.4860 hc         1 AGY       0.045700
     45 H220        -7.0790    -1.9810    -0.5740 hc         1 AGY       0.045700
     46 H320        -6.3700    -1.4570     0.9190 hc         1 AGY       0.045700
     47 H121        -4.3160    -2.8250    -2.6260 hc         1 AGY       0.045700
     48 H221        -6.0330    -2.8670    -2.3050 hc         1 AGY       0.045700
     49 H321        -5.2680    -1.3380    -2.7350 hc         1 AGY       0.045700
     50 H122        -4.5070    -3.2450     1.0810 hc         1 AGY       0.045700
     51 H222        -5.5000    -4.0220    -0.1500 hc         1 AGY       0.045700
     52 H322        -3.7660    -3.8250    -0.4100 hc         1 AGY       0.045700
@<TRIPOS>BOND
     1     1     4 ar  
     2     1     7 ar  
     3     1    10 ar  
     4     2     4 1   
     5     2    18 1   
     6     2    31 1   
     7     3    18 2   
     8     4    13 ar  
     9     5     8 1   
    10     5    18 1   
    11     5    32 1   
    12     6    20 2   
    13     7    14 ar  
    14     7    15 ar  
    15     8    20 1   
    16     8    33 1   
    17     9    11 1   
    18    10    16 ar  
    19    10    34 1   
    20    11    12 1   
    21    11    24 1   
    22    13    17 ar  
    23    13    35 1   
    24    14    17 ar  
    25    14    36 1   
    26    15    19 ar  
    27    15    37 1   
    28    16    19 ar  
    29    16    38 1   
    30    17    39 1   
    31    19    40 1   
    32    20    21 1   
    33    21    22 ar  
    34    21    23 ar  
    35    22    24 ar  
    36    22    41 1   
    37    23    25 ar  
    38    23    42 1   
    39    24    26 ar  
    40    25    26 ar  
    41    25    43 1   
    42    26    27 1   
    43    27    28 1   
    44    27    29 1   
    45    27    30 1   
    46    28    44 1   
    47    28    45 1   
    48    28    46 1   
    49    29    47 1   
    50    29    48 1   
    51    29    49 1   
    52    30    50 1   
    53    30    51 1   
    54    30    52 1   
@<TRIPOS>SUBSTRUCTURE
     1 AGY         1 TEMP              0 ****  ****    0 ROOT
