@<TRIPOS>MOLECULE
AH0
   35    36     1     0     0
SMALL
No Charge or Current Charge


@<TRIPOS>ATOM
      1 C1           1.1460     0.6100     1.3550 c5         1 AH0       0.359300
      2 C2           0.7720    -0.2850     0.1130 c6         1 AH0       0.026700
      3 N2           1.9780    -0.8770    -0.5250 ns         1 AH0      -0.491900
      4 C7           2.8810    -1.7170     0.0840 c          1 AH0       0.597100
      5 O7           2.7430    -2.1070     1.2330 o          1 AH0      -0.615100
      6 C8           4.0580    -2.1320    -0.7900 c3         1 AH0      -0.179100
      7 C3          -0.0800     0.4980    -0.9470 c6         1 AH0       0.172300
      8 O3          -1.5030     0.4820    -0.6420 os         1 AH0      -0.423000
      9 C4           0.4220     1.9790    -1.0820 c6         1 AH0       0.143300
     10 O4           1.6210     2.0520    -1.8810 oh         1 AH0      -0.730000
     11 C5           0.7410     2.5860     0.3210 c5         1 AH0       0.085300
     12 O5           1.8040     1.8070     0.9080 os         1 AH0      -0.469000
     13 C6          -0.3810     2.3860     1.3860 c5         1 AH0       0.140600
     14 O6          -0.0180     1.1340     2.0370 os         1 AH0      -0.439000
     15 CA          -2.2510    -0.7750    -0.6450 c3         1 AH0       0.020300
     16 CB          -2.2410    -1.3590    -2.0830 c3         1 AH0      -0.101100
     17 C           -3.7230    -0.5970    -0.1170 c          1 AH0       0.734000
     18 O           -4.1580     0.5290     0.0980 o          1 AH0      -0.716500
     19 OXT         -4.3730    -1.6100     0.1170 o          1 AH0      -0.716500
     20 H1           1.7810     0.0630     2.0640 h2         1 AH0       0.091700
     21 H2           0.1850    -1.1280     0.4960 h1         1 AH0       0.114700
     22 HN2          2.1890    -0.6190    -1.4830 hn         1 AH0       0.323500
     23 H81          4.5660    -1.2320    -1.1560 hc         1 AH0       0.051367
     24 H82          4.7520    -2.8050    -0.2740 hc         1 AH0       0.051367
     25 H83          3.6770    -2.5770    -1.7160 hc         1 AH0       0.051367
     26 H3           0.0480     0.0210    -1.9280 h1         1 AH0       0.046700
     27 H4          -0.3760     2.5690    -1.5560 h1         1 AH0       0.065700
     28 HO4          2.3590     2.0050    -1.2270 ho         1 AH0       0.496000
     29 H5           1.0450     3.6370     0.2210 h1         1 AH0       0.064700
     30 H61         -0.3660     3.1900     2.1340 h1         1 AH0       0.075200
     31 H62         -1.3910     2.3320     0.9610 h1         1 AH0       0.075200
     32 HA          -1.7840    -1.5050     0.0250 h1         1 AH0       0.027700
     33 HB1         -2.5920    -0.6150    -2.8080 hc         1 AH0       0.022367
     34 HB2         -1.2390    -1.6930    -2.3730 hc         1 AH0       0.022367
     35 HB3         -2.9010    -2.2320    -2.1460 hc         1 AH0       0.022367
@<TRIPOS>BOND
     1     1     2 1   
     2     1    12 1   
     3     1    14 1   
     4     1    20 1   
     5     2     3 1   
     6     2     7 1   
     7     2    21 1   
     8     3     4 1   
     9     3    22 1   
    10     4     5 2   
    11     4     6 1   
    12     6    23 1   
    13     6    24 1   
    14     6    25 1   
    15     7     8 1   
    16     7     9 1   
    17     7    26 1   
    18     8    15 1   
    19     9    10 1   
    20     9    11 1   
    21     9    27 1   
    22    10    28 1   
    23    11    12 1   
    24    11    13 1   
    25    11    29 1   
    26    13    14 1   
    27    13    30 1   
    28    13    31 1   
    29    15    16 1   
    30    15    17 1   
    31    15    32 1   
    32    16    33 1   
    33    16    34 1   
    34    16    35 1   
    35    17    18 1   
    36    17    19 1   
@<TRIPOS>SUBSTRUCTURE
     1 AH0         1 TEMP              0 ****  ****    0 ROOT
