@<TRIPOS>MOLECULE
AH0
   35    36     1     0     0
SMALL
abcg2


@<TRIPOS>ATOM
      1 C1           1.0950     0.6340     1.3850 c5         1 AH0       0.359300
      2 C2           0.8210    -0.2920     0.1920 c6         1 AH0       0.026700
      3 N2           2.0730    -0.7520    -0.3620 ns         1 AH0      -0.491900
      4 C7           2.6200    -1.9500    -0.0860 c          1 AH0       0.597100
      5 O7           2.0960    -2.7690     0.6570 o          1 AH0      -0.615100
      6 C8           3.9440    -2.2180    -0.7570 c3         1 AH0      -0.179100
      7 C3          -0.0120     0.4290    -0.8990 c6         1 AH0       0.172300
      8 O3          -1.3800     0.4550    -0.6130 os         1 AH0      -0.423000
      9 C4           0.4250     1.8970    -1.0420 c6         1 AH0       0.143300
     10 O4           1.5720     1.8990    -1.8640 oh         1 AH0      -0.730000
     11 C5           0.7340     2.5140     0.3230 c5         1 AH0       0.085300
     12 O5           1.7750     1.7720     0.9410 os         1 AH0      -0.469000
     13 C6          -0.3920     2.3570     1.3480 c5         1 AH0       0.140600
     14 O6          -0.0990     1.1010     1.9550 os         1 AH0      -0.439000
     15 CA          -2.0920    -0.7610    -0.6910 c3         1 AH0       0.020300
     16 CB          -2.2920    -1.2150    -2.1340 c3         1 AH0      -0.101100
     17 C           -3.4560    -0.5830     0.0130 c          1 AH0       0.734000
     18 O           -3.7940     0.5590     0.3610 o          1 AH0      -0.716500
     19 OXT         -4.1070    -1.6390     0.1500 o          1 AH0      -0.716500
     20 H1           1.6980     0.1240     2.1430 h2         1 AH0       0.091700
     21 H2           0.2790    -1.1700     0.5470 h1         1 AH0       0.114700
     22 HN2          2.5810    -0.1130    -0.9530 hn         1 AH0       0.323500
     23 H81          4.2150    -1.4710    -1.5000 hc         1 AH0       0.051367
     24 H82          4.7300    -2.2520    -0.0020 hc         1 AH0       0.051367
     25 H83          3.9150    -3.1950    -1.2390 hc         1 AH0       0.051367
     26 H3           0.1890    -0.0730    -1.8560 h1         1 AH0       0.046700
     27 H4          -0.3980     2.4580    -1.5050 h1         1 AH0       0.065700
     28 HO4          1.9310     2.7920    -1.9030 ho         1 AH0       0.496000
     29 H5           1.0560     3.5520     0.2140 h1         1 AH0       0.064700
     30 H61         -0.3420     3.1490     2.1000 h1         1 AH0       0.075200
     31 H62         -1.3890     2.3450     0.9120 h1         1 AH0       0.075200
     32 HA          -1.5560    -1.5570    -0.1550 h1         1 AH0       0.027700
     33 HB1         -2.8290    -0.4600    -2.7110 hc         1 AH0       0.022367
     34 HB2         -1.3470    -1.4190    -2.6400 hc         1 AH0       0.022367
     35 HB3         -2.8730    -2.1350    -2.1540 hc         1 AH0       0.022367
@<TRIPOS>BOND
     1     1     2 1   
     2     1    12 1   
     3     1    14 1   
     4     1    20 1   
     5     2     3 1   
     6     2     7 1   
     7     2    21 1   
     8     3     4 1   
     9     3    22 1   
    10     4     5 2   
    11     4     6 1   
    12     6    23 1   
    13     6    24 1   
    14     6    25 1   
    15     7     8 1   
    16     7     9 1   
    17     7    26 1   
    18     8    15 1   
    19     9    10 1   
    20     9    11 1   
    21     9    27 1   
    22    10    28 1   
    23    11    12 1   
    24    11    13 1   
    25    11    29 1   
    26    13    14 1   
    27    13    30 1   
    28    13    31 1   
    29    15    16 1   
    30    15    17 1   
    31    15    32 1   
    32    16    33 1   
    33    16    34 1   
    34    16    35 1   
    35    17    18 1   
    36    17    19 1   
@<TRIPOS>SUBSTRUCTURE
     1 AH0         1 TEMP              0 ****  ****    0 ROOT
