@<TRIPOS>MOLECULE
AH1
   74    78     1     0     0
SMALL
abcg2


@<TRIPOS>ATOM
      1 N01         11.5810    23.2770     5.9790 n          1 AH1      -0.410800
      2 C02         12.0200    21.9790     6.1350 c          1 AH1       0.604000
      3 N03         13.3090    21.6970     5.7320 n          1 AH1      -0.410800
      4 C04         14.4200    22.6340     5.9370 c3         1 AH1       0.067700
      5 C05         14.4820    23.7260     4.8710 c3         1 AH1       0.151300
      6 C06         13.3480    24.7260     4.9610 c3         1 AH1       0.151300
      7 C07         11.9570    24.1000     4.8220 c3         1 AH1       0.067700
      8 C08         10.2780    23.5920     6.5910 c3         1 AH1       0.144300
      9 C09         10.1530    25.0550     6.9350 ca         1 AH1      -0.107300
     10 C10          9.1690    25.8400     6.3370 ca         1 AH1      -0.097500
     11 C11          9.0550    27.1920     6.6470 ca         1 AH1      -0.113750
     12 C12          9.9290    27.7740     7.5580 ca         1 AH1      -0.105500
     13 C13         10.9150    26.9950     8.1630 ca         1 AH1      -0.113750
     14 C14         11.0230    25.6460     7.8540 ca         1 AH1      -0.097500
     15 O15         11.2900    21.1060     6.6120 o          1 AH1      -0.581000
     16 C16         13.6680    20.2670     5.7120 c3         1 AH1       0.144300
     17 C17         14.8000    19.9800     4.7580 ca         1 AH1      -0.107300
     18 C18         16.0110    19.4770     5.2290 ca         1 AH1      -0.097500
     19 C19         17.0620    19.2180     4.3530 ca         1 AH1      -0.113750
     20 C20         16.9100    19.4630     2.9930 ca         1 AH1      -0.105500
     21 C21         15.7000    19.9610     2.5130 ca         1 AH1      -0.113750
     22 C22         14.6530    20.2150     3.3900 ca         1 AH1      -0.097500
     23 C23         14.4950    23.1650     7.3710 c3         1 AH1       0.142600
     24 O24         14.7150    22.0990     8.3010 os         1 AH1      -0.347600
     25 C25         15.9270    21.4680     8.3180 ca         1 AH1       0.126100
     26 C26         15.9670    20.2540     9.0090 ca         1 AH1      -0.167000
     27 C27         17.1490    19.5310     9.0740 ca         1 AH1      -0.079000
     28 C28         18.3020    20.0030     8.4500 ca         1 AH1      -0.147000
     29 C29         18.2570    21.2140     7.7710 ca         1 AH1      -0.079000
     30 C30         17.0790    21.9530     7.7010 ca         1 AH1      -0.167000
     31 O31         15.7370    24.3840     5.0160 oh         1 AH1      -0.672500
     32 O32         13.5760    25.6760     3.9170 oh         1 AH1      -0.672500
     33 C33         11.7260    23.3890     3.4870 c3         1 AH1       0.142600
     34 O34         10.3350    23.1240     3.2800 os         1 AH1      -0.347600
     35 C35          9.4870    24.1690     3.0430 ca         1 AH1       0.126100
     36 C36          9.9000    25.4550     2.6970 ca         1 AH1      -0.167000
     37 C37          8.9450    26.4480     2.4880 ca         1 AH1      -0.079000
     38 C38          7.5890    26.1740     2.6150 ca         1 AH1      -0.147000
     39 C39          7.1860    24.8830     2.9510 ca         1 AH1      -0.079000
     40 C40          8.1250    23.8860     3.1660 ca         1 AH1      -0.167000
     41 H04         15.3210    22.0490     5.7700 h1         1 AH1       0.083700
     42 H05         14.4390    23.2300     3.8940 h1         1 AH1       0.059700
     43 H06         13.3900    25.2310     5.9300 h1         1 AH1       0.059700
     44 H07         11.2790    24.9500     4.8520 h1         1 AH1       0.083700
     45 H081         9.4610    23.2990     5.9280 h1         1 AH1       0.068700
     46 H082        10.1970    22.9860     7.4910 h1         1 AH1       0.068700
     47 H10          8.5000    25.3930     5.6130 ha         1 AH1       0.118750
     48 H11          8.2890    27.7900     6.1690 ha         1 AH1       0.114250
     49 H12          9.8460    28.8260     7.7980 ha         1 AH1       0.113000
     50 H13         11.5970    27.4420     8.8760 ha         1 AH1       0.114250
     51 H14         11.7900    25.0430     8.3250 ha         1 AH1       0.118750
     52 H161        13.9320    19.9220     6.7140 h1         1 AH1       0.068700
     53 H162        12.7770    19.7230     5.4070 h1         1 AH1       0.068700
     54 H18         16.1390    19.3020     6.2900 ha         1 AH1       0.118750
     55 H19         17.9990    18.8340     4.7360 ha         1 AH1       0.114250
     56 H20         17.7270    19.2680     2.3100 ha         1 AH1       0.113000
     57 H21         15.5730    20.1490     1.4540 ha         1 AH1       0.114250
     58 H22         13.7140    20.6020     3.0130 ha         1 AH1       0.118750
     59 H231        15.2720    23.9240     7.4500 h1         1 AH1       0.073450
     60 H232        13.5520    23.6060     7.6800 h1         1 AH1       0.073450
     61 H26         15.0620    19.8890     9.4760 ha         1 AH1       0.126750
     62 H27         17.1660    18.5880     9.6060 ha         1 AH1       0.114000
     63 H28         19.2210    19.4330     8.4930 ha         1 AH1       0.115000
     64 H29         19.1440    21.5940     7.2800 ha         1 AH1       0.114000
     65 H30         17.0710    22.8860     7.1570 ha         1 AH1       0.126750
     66 HO1         15.6970    25.1830     4.4730 ho         1 AH1       0.460000
     67 HO2         13.1050    26.4920     4.1280 ho         1 AH1       0.460000
     68 H331        12.1380    23.9790     2.6680 h1         1 AH1       0.073450
     69 H332        12.1970    22.4110     3.4740 h1         1 AH1       0.073450
     70 H36         10.9470    25.7000     2.6000 ha         1 AH1       0.126750
     71 H37          9.2750    27.4460     2.2290 ha         1 AH1       0.114000
     72 H38          6.8560    26.9540     2.4570 ha         1 AH1       0.115000
     73 H39          6.1330    24.6520     3.0550 ha         1 AH1       0.114000
     74 H40          7.8240    22.8830     3.4410 ha         1 AH1       0.126750
@<TRIPOS>BOND
     1     1     2 1   
     2     1     7 1   
     3     1     8 1   
     4     2     3 1   
     5     2    15 2   
     6     3     4 1   
     7     3    16 1   
     8     4     5 1   
     9     4    23 1   
    10     4    41 1   
    11     5     6 1   
    12     5    31 1   
    13     5    42 1   
    14     6     7 1   
    15     6    32 1   
    16     6    43 1   
    17     7    33 1   
    18     7    44 1   
    19     8     9 1   
    20     8    45 1   
    21     8    46 1   
    22     9    10 ar  
    23     9    14 ar  
    24    10    11 ar  
    25    10    47 1   
    26    11    12 ar  
    27    11    48 1   
    28    12    13 ar  
    29    12    49 1   
    30    13    14 ar  
    31    13    50 1   
    32    14    51 1   
    33    16    17 1   
    34    16    52 1   
    35    16    53 1   
    36    17    18 ar  
    37    17    22 ar  
    38    18    19 ar  
    39    18    54 1   
    40    19    20 ar  
    41    19    55 1   
    42    20    21 ar  
    43    20    56 1   
    44    21    22 ar  
    45    21    57 1   
    46    22    58 1   
    47    23    24 1   
    48    23    59 1   
    49    23    60 1   
    50    24    25 1   
    51    25    26 ar  
    52    25    30 ar  
    53    26    27 ar  
    54    26    61 1   
    55    27    28 ar  
    56    27    62 1   
    57    28    29 ar  
    58    28    63 1   
    59    29    30 ar  
    60    29    64 1   
    61    30    65 1   
    62    31    66 1   
    63    32    67 1   
    64    33    34 1   
    65    33    68 1   
    66    33    69 1   
    67    34    35 1   
    68    35    36 ar  
    69    35    40 ar  
    70    36    37 ar  
    71    36    70 1   
    72    37    38 ar  
    73    37    71 1   
    74    38    39 ar  
    75    38    72 1   
    76    39    40 ar  
    77    39    73 1   
    78    40    74 1   
@<TRIPOS>SUBSTRUCTURE
     1 AH1         1 TEMP              0 ****  ****    0 ROOT
