@<TRIPOS>MOLECULE
AH1
   74    78     1     0     0
SMALL
No Charge or Current Charge


@<TRIPOS>ATOM
      1 N01         11.5980    23.3800     5.9120 n          1 AH1      -0.410800
      2 C02         12.0620    22.0560     6.0870 c          1 AH1       0.604000
      3 N03         13.3940    21.7420     5.7340 n          1 AH1      -0.410800
      4 C04         14.4980    22.7270     5.9700 c3         1 AH1       0.067700
      5 C05         14.5990    23.8290     4.8870 c3         1 AH1       0.151300
      6 C06         13.4350    24.8520     4.9340 c3         1 AH1       0.151300
      7 C07         12.0450    24.1970     4.7380 c3         1 AH1       0.067700
      8 C08         10.3250    23.7840     6.5620 c3         1 AH1       0.144300
      9 C09         10.2480    25.2620     6.9280 ca         1 AH1      -0.107300
     10 C10          9.3410    26.1130     6.2670 ca         1 AH1      -0.097500
     11 C11          9.2870    27.4800     6.5900 ca         1 AH1      -0.113750
     12 C12         10.1380    28.0030     7.5790 ca         1 AH1      -0.105500
     13 C13         11.0410    27.1570     8.2450 ca         1 AH1      -0.113750
     14 C14         11.0950    25.7900     7.9220 ca         1 AH1      -0.097500
     15 O15         11.3200    21.1950     6.5380 o          1 AH1      -0.581000
     16 C16         13.7860    20.3140     5.6210 c3         1 AH1       0.144300
     17 C17         14.8890    20.0430     4.6030 ca         1 AH1      -0.107300
     18 C18         16.1610    19.6120     5.0300 ca         1 AH1      -0.097500
     19 C19         17.1820    19.3800     4.0920 ca         1 AH1      -0.113750
     20 C20         16.9360    19.5750     2.7220 ca         1 AH1      -0.105500
     21 C21         15.6680    19.9990     2.2910 ca         1 AH1      -0.113750
     22 C22         14.6470    20.2310     3.2290 ca         1 AH1      -0.097500
     23 C23         14.5550    23.2610     7.4360 c3         1 AH1       0.142600
     24 O24         14.6600    22.1490     8.3530 os         1 AH1      -0.347600
     25 C25         15.7890    21.3610     8.4570 ca         1 AH1       0.126100
     26 C26         15.6690    20.1360     9.1320 ca         1 AH1      -0.167000
     27 C27         16.7770    19.2810     9.2630 ca         1 AH1      -0.079000
     28 C28         18.0170    19.6570     8.7200 ca         1 AH1      -0.147000
     29 C29         18.1500    20.8860     8.0520 ca         1 AH1      -0.079000
     30 C30         17.0410    21.7400     7.9210 ca         1 AH1      -0.167000
     31 O31         15.8400    24.5420     5.0200 oh         1 AH1      -0.672500
     32 O32         13.6580    25.8590     3.9240 oh         1 AH1      -0.672500
     33 C33         11.8610    23.4750     3.3660 c3         1 AH1       0.142600
     34 O34         10.4830    23.0650     3.2170 os         1 AH1      -0.347600
     35 C35          9.4440    23.9590     3.0460 ca         1 AH1       0.126100
     36 C36          9.6460    25.3040     2.6610 ca         1 AH1      -0.167000
     37 C37          8.5450    26.1670     2.5160 ca         1 AH1      -0.079000
     38 C38          7.2430    25.6920     2.7470 ca         1 AH1      -0.147000
     39 C39          7.0380    24.3530     3.1190 ca         1 AH1      -0.079000
     40 C40          8.1380    23.4900     3.2630 ca         1 AH1      -0.167000
     41 H04         15.4350    22.1740     5.8460 h1         1 AH1       0.083700
     42 H05         14.5810    23.3300     3.9080 h1         1 AH1       0.059700
     43 H06         13.4370    25.3310     5.9230 h1         1 AH1       0.059700
     44 H07         11.3660    25.0540     4.6850 h1         1 AH1       0.083700
     45 H081         9.4930    23.5220     5.8950 h1         1 AH1       0.068700
     46 H082        10.1890    23.2050     7.4850 h1         1 AH1       0.068700
     47 H10          8.6790    25.7180     5.4990 ha         1 AH1       0.118750
     48 H11          8.5870    28.1330     6.0740 ha         1 AH1       0.114250
     49 H12         10.0960    29.0600     7.8290 ha         1 AH1       0.113000
     50 H13         11.6980    27.5600     9.0120 ha         1 AH1       0.114250
     51 H14         11.7960    25.1420     8.4420 ha         1 AH1       0.118750
     52 H161        14.0980    19.9570     6.6110 h1         1 AH1       0.068700
     53 H162        12.9120    19.7180     5.3280 h1         1 AH1       0.068700
     54 H18         16.3610    19.4590     6.0880 ha         1 AH1       0.118750
     55 H19         18.1630    19.0510     4.4280 ha         1 AH1       0.114250
     56 H20         17.7270    19.3960     1.9960 ha         1 AH1       0.113000
     57 H21         15.4760    20.1480     1.2310 ha         1 AH1       0.114250
     58 H22         13.6680    20.5580     2.8880 ha         1 AH1       0.118750
     59 H231        15.3930    23.9570     7.5640 h1         1 AH1       0.073450
     60 H232        13.6390    23.8240     7.6490 h1         1 AH1       0.073450
     61 H26         14.7080    19.8440     9.5500 ha         1 AH1       0.126750
     62 H27         16.6750    18.3310     9.7820 ha         1 AH1       0.114000
     63 H28         18.8760    18.9970     8.8190 ha         1 AH1       0.115000
     64 H29         19.1130    21.1770     7.6360 ha         1 AH1       0.114000
     65 H30         17.1730    22.6860     7.4050 ha         1 AH1       0.126750
     66 HO1         15.7160    25.3570     4.4790 ho         1 AH1       0.460000
     67 HO2         13.1330    26.6530     4.1750 ho         1 AH1       0.460000
     68 H331        12.1700    24.1280     2.5410 h1         1 AH1       0.073450
     69 H332        12.5090    22.5920     3.3330 h1         1 AH1       0.073450
     70 H36         10.6400    25.6940     2.4680 ha         1 AH1       0.126750
     71 H37          8.7010    27.2030     2.2230 ha         1 AH1       0.114000
     72 H38          6.3920    26.3610     2.6350 ha         1 AH1       0.115000
     73 H39          6.0290    23.9840     3.2950 ha         1 AH1       0.114000
     74 H40          7.9800    22.4550     3.5540 ha         1 AH1       0.126750
@<TRIPOS>BOND
     1     1     2 1   
     2     1     7 1   
     3     1     8 1   
     4     2     3 1   
     5     2    15 2   
     6     3     4 1   
     7     3    16 1   
     8     4     5 1   
     9     4    23 1   
    10     4    41 1   
    11     5     6 1   
    12     5    31 1   
    13     5    42 1   
    14     6     7 1   
    15     6    32 1   
    16     6    43 1   
    17     7    33 1   
    18     7    44 1   
    19     8     9 1   
    20     8    45 1   
    21     8    46 1   
    22     9    10 ar  
    23     9    14 ar  
    24    10    11 ar  
    25    10    47 1   
    26    11    12 ar  
    27    11    48 1   
    28    12    13 ar  
    29    12    49 1   
    30    13    14 ar  
    31    13    50 1   
    32    14    51 1   
    33    16    17 1   
    34    16    52 1   
    35    16    53 1   
    36    17    18 ar  
    37    17    22 ar  
    38    18    19 ar  
    39    18    54 1   
    40    19    20 ar  
    41    19    55 1   
    42    20    21 ar  
    43    20    56 1   
    44    21    22 ar  
    45    21    57 1   
    46    22    58 1   
    47    23    24 1   
    48    23    59 1   
    49    23    60 1   
    50    24    25 1   
    51    25    26 ar  
    52    25    30 ar  
    53    26    27 ar  
    54    26    61 1   
    55    27    28 ar  
    56    27    62 1   
    57    28    29 ar  
    58    28    63 1   
    59    29    30 ar  
    60    29    64 1   
    61    30    65 1   
    62    31    66 1   
    63    32    67 1   
    64    33    34 1   
    65    33    68 1   
    66    33    69 1   
    67    34    35 1   
    68    35    36 ar  
    69    35    40 ar  
    70    36    37 ar  
    71    36    70 1   
    72    37    38 ar  
    73    37    71 1   
    74    38    39 ar  
    75    38    72 1   
    76    39    40 ar  
    77    39    73 1   
    78    40    74 1   
@<TRIPOS>SUBSTRUCTURE
     1 AH1         1 TEMP              0 ****  ****    0 ROOT
