@<TRIPOS>MOLECULE
AH2
   23    23     1     0     0
SMALL
abcg2


@<TRIPOS>ATOM
      1 O3          -2.4500    -1.2520    -0.0610 oh         1 AH2      -0.649000
      2 C4          -0.1110    -0.9350    -0.2170 c6         1 AH2       0.145300
      3 C5           1.0600    -0.0690     0.2590 c6         1 AH2       0.168300
      4 O4           0.1760    -2.2710     0.1290 oh         1 AH2      -0.724000
      5 C6           2.3430    -0.4140    -0.4690 c3         1 AH2       0.171600
      6 O5           0.7910     1.2960     0.0340 os         1 AH2      -0.425000
      7 O6           3.4020     0.3150     0.1040 oh         1 AH2      -0.713000
      8 C3          -1.4010    -0.4630     0.4460 c6         1 AH2       0.143300
      9 C2          -1.6100     1.0320     0.2290 c6         1 AH2       0.106300
     10 O2          -1.8660     1.2530    -1.1370 oh         1 AH2      -0.694000
     11 C1          -0.3570     1.7540     0.7070 c6         1 AH2       0.119600
     12 H32         -3.2220    -1.1380     0.5010 ho         1 AH2       0.448000
     13 H41         -0.2090    -0.8250    -1.3070 h1         1 AH2       0.071700
     14 H5           1.2000    -0.2520     1.3390 h1         1 AH2       0.054700
     15 H42         -0.5640    -2.8160    -0.1580 ho         1 AH2       0.522000
     16 H61          2.5070    -1.4940    -0.3940 h1         1 AH2       0.036200
     17 H62          2.2150    -0.1810    -1.5350 h1         1 AH2       0.036200
     18 H63          4.2100     0.0770    -0.3580 ho         1 AH2       0.503000
     19 H31         -1.2880    -0.6140     1.5300 h1         1 AH2       0.040700
     20 H21         -2.4520     1.3700     0.8520 h1         1 AH2       0.031700
     21 H22         -1.9890     2.1970    -1.2740 ho         1 AH2       0.503000
     22 H12         -0.2580     1.6230     1.7950 h1         1 AH2       0.052200
     23 H11         -0.4330     2.8270     0.5170 h1         1 AH2       0.052200
@<TRIPOS>BOND
     1     1     8 1   
     2     1    12 1   
     3     2     3 1   
     4     2     4 1   
     5     2     8 1   
     6     2    13 1   
     7     3     5 1   
     8     3     6 1   
     9     3    14 1   
    10     4    15 1   
    11     5     7 1   
    12     5    16 1   
    13     5    17 1   
    14     6    11 1   
    15     7    18 1   
    16     8     9 1   
    17     8    19 1   
    18     9    10 1   
    19     9    11 1   
    20     9    20 1   
    21    10    21 1   
    22    11    22 1   
    23    11    23 1   
@<TRIPOS>SUBSTRUCTURE
     1 AH2         1 TEMP              0 ****  ****    0 ROOT
