@<TRIPOS>MOLECULE
AH2
   23    23     1     0     0
SMALL
No Charge or Current Charge


@<TRIPOS>ATOM
      1 O3          -2.5380    -1.2990     0.0970 oh         1 AH2      -0.649000
      2 C4          -0.1070    -0.9900    -0.1580 c6         1 AH2       0.145300
      3 C5           1.0860    -0.0830     0.2830 c6         1 AH2       0.168300
      4 O4           0.1470    -2.3870     0.0970 oh         1 AH2      -0.724000
      5 C6           2.4030    -0.4100    -0.4970 c3         1 AH2       0.171600
      6 O5           0.7540     1.3150     0.0610 os         1 AH2      -0.425000
      7 O6           3.5090     0.4480    -0.1440 oh         1 AH2      -0.713000
      8 C3          -1.4120    -0.5470     0.5790 c6         1 AH2       0.143300
      9 C2          -1.6770     0.9750     0.3760 c6         1 AH2       0.106300
     10 O2          -2.0260     1.2270    -1.0040 oh         1 AH2      -0.694000
     11 C1          -0.4020     1.7630     0.8060 c6         1 AH2       0.119600
     12 H32         -2.8990    -0.7420    -0.6320 ho         1 AH2       0.448000
     13 H41         -0.2580    -0.8340    -1.2380 h1         1 AH2       0.071700
     14 H5           1.2790    -0.2330     1.3560 h1         1 AH2       0.054700
     15 H42         -0.7440    -2.8150     0.0870 ho         1 AH2       0.522000
     16 H61          2.6680    -1.4580    -0.2990 h1         1 AH2       0.036200
     17 H62          2.1910    -0.3270    -1.5720 h1         1 AH2       0.036200
     18 H63          4.2640     0.2000    -0.7280 ho         1 AH2       0.503000
     19 H31         -1.2790    -0.7300     1.6560 h1         1 AH2       0.040700
     20 H21         -2.5060     1.2800     1.0310 h1         1 AH2       0.031700
     21 H22         -1.9990     2.2030    -1.1390 ho         1 AH2       0.503000
     22 H12         -0.2150     1.6230     1.8810 h1         1 AH2       0.052200
     23 H11         -0.5450     2.8390     0.6310 h1         1 AH2       0.052200
@<TRIPOS>BOND
     1     1     8 1   
     2     1    12 1   
     3     2     3 1   
     4     2     4 1   
     5     2     8 1   
     6     2    13 1   
     7     3     5 1   
     8     3     6 1   
     9     3    14 1   
    10     4    15 1   
    11     5     7 1   
    12     5    16 1   
    13     5    17 1   
    14     6    11 1   
    15     7    18 1   
    16     8     9 1   
    17     8    19 1   
    18     9    10 1   
    19     9    11 1   
    20     9    20 1   
    21    10    21 1   
    22    11    22 1   
    23    11    23 1   
@<TRIPOS>SUBSTRUCTURE
     1 AH2         1 TEMP              0 ****  ****    0 ROOT
