@<TRIPOS>MOLECULE
AH3
   34    35     1     0     0
SMALL
abcg2


@<TRIPOS>ATOM
      1 C4           0.5490     1.0500     0.1650 ca         1 AH3      -0.170000
      2 C5          -0.7210     0.4660     0.2350 ca         1 AH3      -0.104300
      3 C6          -0.8520    -0.9090     0.1630 ca         1 AH3      -0.061300
      4 C11          3.1460     2.1550     0.0120 c3         1 AH3       0.162600
      5 C7          -1.9160     1.3670     0.4280 c6         1 AH3       0.155300
      6 C8          -3.2330    -0.6400     0.8670 c6         1 AH3       0.093000
      7 C9          -2.2040    -1.5710     0.2450 c6         1 AH3      -0.050100
      8 C10          2.6400    -3.2160    -0.3010 c3         1 AH3       0.144900
      9 C12          4.6290     2.4210    -0.0880 c3         1 AH3      -0.093100
     10 N1          -3.1540     0.6540     0.2200 n          1 AH3      -0.418800
     11 C3           1.6850     0.2780     0.0130 ca         1 AH3       0.121100
     12 C1           0.2980    -1.6930     0.0060 ca         1 AH3      -0.169000
     13 C2           1.5540    -1.1250    -0.0710 ca         1 AH3       0.118100
     14 O1           2.7060    -1.8080    -0.2200 os         1 AH3      -0.320100
     15 O2           2.9420     0.7520    -0.0660 os         1 AH3      -0.328100
     16 O3          -5.1420     0.5320    -0.8860 o          1 AH3      -0.602100
     17 H1           0.6250     2.1280     0.2290 ha         1 AH3       0.116000
     18 H2           2.7510     2.5430     0.9580 h1         1 AH3       0.030700
     19 H3           2.6130     2.6610    -0.8000 h1         1 AH3       0.030700
     20 H4          -1.8980     1.7910     1.4380 h1         1 AH3       0.052200
     21 H5          -1.8720     2.2080    -0.2660 h1         1 AH3       0.052200
     22 H6          -4.2400    -1.0360     0.7650 h1         1 AH3       0.062700
     23 H7          -3.0320    -0.5080     1.9330 h1         1 AH3       0.062700
     24 H8          -2.5400    -1.8630    -0.7540 hc         1 AH3       0.058700
     25 H9          -2.1390    -2.4900     0.8330 hc         1 AH3       0.058700
     26 H10          3.6630    -3.5670    -0.4150 h1         1 AH3       0.040367
     27 H11          2.2150    -3.6590     0.6040 h1         1 AH3       0.040367
     28 H12          2.0560    -3.5510    -1.1630 h1         1 AH3       0.040367
     29 H13          5.1760     1.9490     0.7290 hc         1 AH3       0.047700
     30 H14          5.0370     2.0630    -1.0330 hc         1 AH3       0.047700
     31 H15          4.8070     3.4940    -0.0320 hc         1 AH3       0.047700
     32 H16         -3.8240     2.0670    -1.0750 h5         1 AH3       0.007200
     33 H17          0.1810    -2.7680    -0.0500 ha         1 AH3       0.120000
     34 C13         -4.0940     1.0990    -0.6260 c          1 AH3       0.606900
@<TRIPOS>BOND
     1     1     2 ar  
     2     1    11 ar  
     3     1    17 1   
     4     2     3 ar  
     5     2     5 1   
     6     3     7 1   
     7     3    12 ar  
     8     4     9 1   
     9     4    15 1   
    10     4    18 1   
    11     4    19 1   
    12     5    10 1   
    13     5    20 1   
    14     5    21 1   
    15     6     7 1   
    16     6    10 1   
    17     6    22 1   
    18     6    23 1   
    19     7    24 1   
    20     7    25 1   
    21     8    14 1   
    22     8    26 1   
    23     8    27 1   
    24     8    28 1   
    25     9    29 1   
    26     9    30 1   
    27     9    31 1   
    28    10    34 1   
    29    11    13 ar  
    30    11    15 1   
    31    12    13 ar  
    32    12    33 1   
    33    13    14 1   
    34    16    34 2   
    35    32    34 1   
@<TRIPOS>SUBSTRUCTURE
     1 AH3         1 TEMP              0 ****  ****    0 ROOT
