@<TRIPOS>MOLECULE
AH3
   34    35     1     0     0
SMALL
No Charge or Current Charge


@<TRIPOS>ATOM
      1 C4           0.5570     1.0660     0.1450 ca         1 AH3      -0.170000
      2 C5          -0.7190     0.4740     0.2040 ca         1 AH3      -0.104300
      3 C6          -0.8390    -0.9330     0.1410 ca         1 AH3      -0.061300
      4 C11          3.2060     2.2440     0.0190 c3         1 AH3       0.162600
      5 C7          -1.9550     1.3770     0.3440 c6         1 AH3       0.155300
      6 C8          -3.2810    -0.6790     0.8260 c6         1 AH3       0.093000
      7 C9          -2.2170    -1.5970     0.1950 c6         1 AH3      -0.050100
      8 C10          2.7140    -3.3380    -0.2610 c3         1 AH3       0.144900
      9 C12          4.7220     2.4810    -0.0790 c3         1 AH3      -0.093100
     10 N1          -3.2410     0.6600     0.1970 n          1 AH3      -0.418800
     11 C3           1.7160     0.2680     0.0170 ca         1 AH3       0.121100
     12 C1           0.3100    -1.7310     0.0080 ca         1 AH3      -0.169000
     13 C2           1.5920    -1.1400    -0.0540 ca         1 AH3       0.118100
     14 O1           2.7430    -1.9020    -0.1820 os         1 AH3      -0.320100
     15 O2           2.9830     0.8260    -0.0450 os         1 AH3      -0.328100
     16 O3          -5.3860     0.6330    -0.6670 o          1 AH3      -0.602100
     17 H1           0.6280     2.1490     0.1990 ha         1 AH3       0.116000
     18 H2           2.8330     2.6560     0.9650 h1         1 AH3       0.030700
     19 H3           2.7030     2.7550    -0.8130 h1         1 AH3       0.030700
     20 H4          -1.9320     1.8610     1.3310 h1         1 AH3       0.052200
     21 H5          -1.8930     2.1750    -0.4100 h1         1 AH3       0.052200
     22 H6          -4.2750    -1.1360     0.7220 h1         1 AH3       0.062700
     23 H7          -3.0790    -0.5720     1.9020 h1         1 AH3       0.062700
     24 H8          -2.5270    -1.8630    -0.8240 hc         1 AH3       0.058700
     25 H9          -2.1670    -2.5380     0.7610 hc         1 AH3       0.058700
     26 H10          3.7330    -3.7330    -0.3580 h1         1 AH3       0.040367
     27 H11          2.2680    -3.7700     0.6440 h1         1 AH3       0.040367
     28 H12          2.1370    -3.6700    -1.1330 h1         1 AH3       0.040367
     29 H13          5.2430     1.9880     0.7510 hc         1 AH3       0.047700
     30 H14          5.1140     2.0880    -1.0240 hc         1 AH3       0.047700
     31 H15          4.9410     3.5540    -0.0340 hc         1 AH3       0.047700
     32 H16         -4.0960     2.2170    -0.9250 h5         1 AH3       0.007200
     33 H17          0.1890    -2.8090    -0.0470 ha         1 AH3       0.120000
     34 C13         -4.3160     1.2130    -0.5180 c          1 AH3       0.606900
@<TRIPOS>BOND
     1     1     2 ar  
     2     1    11 ar  
     3     1    17 1   
     4     2     3 ar  
     5     2     5 1   
     6     3     7 1   
     7     3    12 ar  
     8     4     9 1   
     9     4    15 1   
    10     4    18 1   
    11     4    19 1   
    12     5    10 1   
    13     5    20 1   
    14     5    21 1   
    15     6     7 1   
    16     6    10 1   
    17     6    22 1   
    18     6    23 1   
    19     7    24 1   
    20     7    25 1   
    21     8    14 1   
    22     8    26 1   
    23     8    27 1   
    24     8    28 1   
    25     9    29 1   
    26     9    30 1   
    27     9    31 1   
    28    10    34 1   
    29    11    13 ar  
    30    11    15 1   
    31    12    13 ar  
    32    12    33 1   
    33    13    14 1   
    34    16    34 2   
    35    32    34 1   
@<TRIPOS>SUBSTRUCTURE
     1 AH3         1 TEMP              0 ****  ****    0 ROOT
