@<TRIPOS>MOLECULE
AH4
   59    61     1     0     0
SMALL
bcc


@<TRIPOS>ATOM
      1 N11        -11.0190     1.0360    -0.6760 ns         1 AH4      -0.454400
      2 C21          5.0020     1.6370     0.0200 ca         1 AH4       0.154600
      3 C31          7.0740    -2.3480    -1.2200 ca         1 AH4      -0.120250
      4 C22          5.7790     2.2050    -0.9830 ca         1 AH4      -0.121750
      5 C32          5.9740    -1.5050    -1.1680 ca         1 AH4      -0.121750
      6 C02         -0.4660    -1.6920    -0.0880 c          1 AH4       0.698700
      7 C04         -2.8590    -1.3190     0.1990 c3         1 AH4       0.100000
      8 C05         -3.8420    -0.1610     0.1770 c3         1 AH4      -0.092400
      9 C06         -5.2790    -0.6680     0.1970 c3         1 AH4      -0.074400
     10 C07         -6.3180     0.4430     0.1800 c3         1 AH4      -0.075400
     11 C08         -7.7420    -0.1000     0.1920 c3         1 AH4      -0.068400
     12 C09         -8.7840     1.0120     0.1750 c3         1 AH4      -0.158400
     13 C10        -10.1970     0.4810     0.2360 c          1 AH4       0.667100
     14 C14          0.9000    -1.1130    -0.0570 ca         1 AH4      -0.456200
     15 C15          1.9980    -1.9560     0.0900 ca         1 AH4       0.512700
     16 C17          1.2140     0.2330    -0.2150 ca         1 AH4       0.512700
     17 C19          3.4230    -0.2100    -0.0430 ca         1 AH4       0.926900
     18 C23          6.1110     3.5510    -0.9220 ca         1 AH4      -0.120250
     19 C24          5.6630     4.3350     0.1320 ca         1 AH4      -0.129000
     20 C25          4.8860     3.7640     1.1320 ca         1 AH4      -0.120250
     21 C26          4.5610     2.4170     1.0830 ca         1 AH4      -0.121750
     22 C27          5.8100    -0.6500    -0.0840 ca         1 AH4       0.154600
     23 C28          6.7530    -0.6310     0.9360 ca         1 AH4      -0.121750
     24 C29          7.8580    -1.4690     0.8730 ca         1 AH4      -0.120250
     25 C30          8.0190    -2.3330    -0.2020 ca         1 AH4      -0.129000
     26 N03         -1.4850    -0.8580     0.1720 ns         1 AH4      -0.567900
     27 N16          3.2410    -1.5230     0.1130 nb         1 AH4      -0.754000
     28 N18          2.4520     0.6870    -0.2160 nb         1 AH4      -0.754000
     29 N20          4.7080     0.2470    -0.0300 nh         1 AH4      -0.549100
     30 O01         -0.6310    -2.8790    -0.3450 o          1 AH4      -0.606100
     31 O12        -12.3620     0.8170    -0.6040 oh         1 AH4      -0.388100
     32 O13        -10.5550    -0.3800     1.0210 o          1 AH4      -0.568100
     33 H1         -10.7550     1.8570    -1.2020 hn         1 AH4       0.330500
     34 H3           6.1260     1.5980    -1.8090 ha         1 AH4       0.140500
     35 H4           5.2480    -1.5100    -1.9700 ha         1 AH4       0.140500
     36 H5          -3.0340    -1.9370     1.0870 h1         1 AH4       0.054200
     37 H6          -3.0280    -1.9610    -0.6670 h1         1 AH4       0.054200
     38 H7          -3.6720     0.4920     1.0400 hc         1 AH4       0.043200
     39 H8          -3.6750     0.4480    -0.7170 hc         1 AH4       0.043200
     40 H9          -5.4380    -1.3260    -0.6650 hc         1 AH4       0.045200
     41 H10         -5.4280    -1.2920     1.0840 hc         1 AH4       0.045200
     42 H11         -6.1710     1.0980     1.0450 hc         1 AH4       0.038200
     43 H12         -6.1730     1.0700    -0.7050 hc         1 AH4       0.038200
     44 H13         -7.8880    -0.7520    -0.6740 hc         1 AH4       0.056200
     45 H14         -7.8860    -0.7250     1.0770 hc         1 AH4       0.056200
     46 H15         -8.6460     1.6610     1.0460 hc         1 AH4       0.058700
     47 H16         -8.6420     1.6460    -0.7030 hc         1 AH4       0.058700
     48 H17          1.8570    -3.0240     0.2070 h4         1 AH4       0.033600
     49 H18          0.4420     0.9800    -0.3760 h4         1 AH4       0.033600
     50 H19          6.7160     3.9870    -1.7060 ha         1 AH4       0.133500
     51 H20          5.9210     5.3850     0.1780 ha         1 AH4       0.132500
     52 H21          4.5380     4.3660     1.9610 ha         1 AH4       0.133500
     53 H22          3.9700     1.9700     1.8730 ha         1 AH4       0.140500
     54 H23          6.6250     0.0390     1.7770 ha         1 AH4       0.140500
     55 H24          8.5890    -1.4500     1.6700 ha         1 AH4       0.133500
     56 H25          8.8790    -2.9880    -0.2490 ha         1 AH4       0.132500
     57 H26         -1.2920     0.0510     0.5610 hn         1 AH4       0.311500
     58 H27        -12.5560     0.1310    -1.2560 ho         1 AH4       0.408000
     59 H2           7.1970    -3.0130    -2.0660 ha         1 AH4       0.133500
@<TRIPOS>BOND
     1     1    13 1   
     2     1    31 1   
     3     1    33 1   
     4     2     4 ar  
     5     2    21 ar  
     6     2    29 1   
     7     3     5 ar  
     8     3    25 ar  
     9     3    59 1   
    10     4    18 ar  
    11     4    34 1   
    12     5    22 ar  
    13     5    35 1   
    14     6    14 1   
    15     6    26 1   
    16     6    30 2   
    17     7     8 1   
    18     7    26 1   
    19     7    36 1   
    20     7    37 1   
    21     8     9 1   
    22     8    38 1   
    23     8    39 1   
    24     9    10 1   
    25     9    40 1   
    26     9    41 1   
    27    10    11 1   
    28    10    42 1   
    29    10    43 1   
    30    11    12 1   
    31    11    44 1   
    32    11    45 1   
    33    12    13 1   
    34    12    46 1   
    35    12    47 1   
    36    13    32 2   
    37    14    15 ar  
    38    14    16 ar  
    39    15    27 ar  
    40    15    48 1   
    41    16    28 ar  
    42    16    49 1   
    43    17    27 ar  
    44    17    28 ar  
    45    17    29 1   
    46    18    19 ar  
    47    18    50 1   
    48    19    20 ar  
    49    19    51 1   
    50    20    21 ar  
    51    20    52 1   
    52    21    53 1   
    53    22    23 ar  
    54    22    29 1   
    55    23    24 ar  
    56    23    54 1   
    57    24    25 ar  
    58    24    55 1   
    59    25    56 1   
    60    26    57 1   
    61    31    58 1   
@<TRIPOS>SUBSTRUCTURE
     1 AH4         1 TEMP              0 ****  ****    0 ROOT
