@<TRIPOS>MOLECULE
AH4
   59    61     1     0     0
SMALL
No Charge or Current Charge


@<TRIPOS>ATOM
      1 N11        -10.8640     0.6250    -1.2950 ns         1 AH4      -0.387400
      2 C21          5.0260     1.6220     0.3040 ca         1 AH4       0.293000
      3 C31          6.5610    -2.3480    -1.9860 ca         1 AH4      -0.102250
      4 C22          5.8600     2.3770    -0.5470 ca         1 AH4      -0.103750
      5 C32          5.5320    -1.5230    -1.4970 ca         1 AH4      -0.103750
      6 C02         -0.4000    -1.8260     0.8260 c          1 AH4       0.631700
      7 C04         -2.8680    -1.3980     0.6840 c3         1 AH4       0.100000
      8 C05         -3.8190    -0.2600     0.2660 c3         1 AH4      -0.092400
      9 C06         -5.3090    -0.6370     0.4170 c3         1 AH4      -0.074400
     10 C07         -6.2650     0.5010    -0.0000 c3         1 AH4      -0.075400
     11 C08         -7.7560     0.1250     0.1510 c3         1 AH4      -0.068400
     12 C09         -8.7120     1.2670    -0.2680 c3         1 AH4      -0.158400
     13 C10        -10.1840     0.8620    -0.1060 c          1 AH4       0.600100
     14 C14          0.9610    -1.2490     0.6020 ca         1 AH4      -0.325600
     15 C15          2.1100    -2.0120     0.8790 ca         1 AH4       0.184400
     16 C17          1.1700     0.0560     0.1150 ca         1 AH4       0.184400
     17 C19          3.4430    -0.2620     0.2190 ca         1 AH4       0.400900
     18 C23          6.1460     3.7250    -0.2630 ca         1 AH4      -0.102250
     19 C24          5.6020     4.3330     0.8790 ca         1 AH4      -0.111000
     20 C25          4.7730     3.5930     1.7370 ca         1 AH4      -0.102250
     21 C26          4.4880     2.2460     1.4510 ca         1 AH4      -0.103750
     22 C27          5.7840    -0.5850    -0.4730 ca         1 AH4       0.293000
     23 C28          7.0920    -0.4880     0.0470 ca         1 AH4      -0.103750
     24 C29          8.1230    -1.3120    -0.4400 ca         1 AH4      -0.102250
     25 C30          7.8570    -2.2420    -1.4570 ca         1 AH4      -0.111000
     26 N03         -1.4660    -1.0110     0.5300 ns         1 AH4      -0.500900
     27 N16          3.3490    -1.5230     0.6890 nb         1 AH4      -0.228000
     28 N18          2.4070     0.5490    -0.0770 nb         1 AH4      -0.228000
     29 N20          4.7470     0.2570     0.0170 nh         1 AH4      -0.825900
     30 O01         -0.5600    -2.9610     1.2500 o          1 AH4      -0.606100
     31 O12        -12.3080     0.5070    -1.3200 oh         1 AH4      -0.427100
     32 O13        -10.7230     0.7770     0.9910 o          1 AH4      -0.568100
     33 H1         -10.4160     0.8570    -2.1800 hn         1 AH4       0.330500
     34 H3           6.2800     1.9220    -1.4390 ha         1 AH4       0.122500
     35 H4           4.5370    -1.6060    -1.9250 ha         1 AH4       0.122500
     36 H5          -3.0490    -1.6630     1.7340 h1         1 AH4       0.054200
     37 H6          -3.0610    -2.2850     0.0650 h1         1 AH4       0.054200
     38 H7          -3.6070     0.6270     0.8760 hc         1 AH4       0.043200
     39 H8          -3.6190     0.0100    -0.7780 hc         1 AH4       0.043200
     40 H9          -5.5190    -1.5260    -0.1910 hc         1 AH4       0.045200
     41 H10         -5.5070    -0.9100     1.4620 hc         1 AH4       0.045200
     42 H11         -6.0550     1.3900     0.6080 hc         1 AH4       0.038200
     43 H12         -6.0660     0.7730    -1.0450 hc         1 AH4       0.038200
     44 H13         -7.9670    -0.7640    -0.4570 hc         1 AH4       0.056200
     45 H14         -7.9540    -0.1490     1.1950 hc         1 AH4       0.056200
     46 H15         -8.5170     2.1350     0.3730 hc         1 AH4       0.058700
     47 H16         -8.5080     1.5260    -1.3130 hc         1 AH4       0.058700
     48 H17          2.0470    -3.0310     1.2590 h4         1 AH4       0.033600
     49 H18          0.3480     0.7260    -0.1300 h4         1 AH4       0.033600
     50 H19          6.7880     4.2960    -0.9310 ha         1 AH4       0.115500
     51 H20          5.8230     5.3760     1.0990 ha         1 AH4       0.114500
     52 H21          4.3530     4.0610     2.6250 ha         1 AH4       0.115500
     53 H22          3.8570     1.6810     2.1300 ha         1 AH4       0.122500
     54 H23          7.3090     0.2210     0.8410 ha         1 AH4       0.122500
     55 H24          9.1260    -1.2280    -0.0270 ha         1 AH4       0.115500
     56 H25          8.6540    -2.8800    -1.8350 ha         1 AH4       0.114500
     57 H26         -1.2550    -0.0850     0.1830 hn         1 AH4       0.311500
     58 H27        -12.4660    -0.3210    -1.8330 ho         1 AH4       0.447000
     59 H2           6.3540    -3.0650    -2.7770 ha         1 AH4       0.115500
@<TRIPOS>BOND
     1     1    13 1   
     2     1    31 1   
     3     1    33 1   
     4     2     4 ar  
     5     2    21 ar  
     6     2    29 1   
     7     3     5 ar  
     8     3    25 ar  
     9     3    59 1   
    10     4    18 ar  
    11     4    34 1   
    12     5    22 ar  
    13     5    35 1   
    14     6    14 1   
    15     6    26 1   
    16     6    30 2   
    17     7     8 1   
    18     7    26 1   
    19     7    36 1   
    20     7    37 1   
    21     8     9 1   
    22     8    38 1   
    23     8    39 1   
    24     9    10 1   
    25     9    40 1   
    26     9    41 1   
    27    10    11 1   
    28    10    42 1   
    29    10    43 1   
    30    11    12 1   
    31    11    44 1   
    32    11    45 1   
    33    12    13 1   
    34    12    46 1   
    35    12    47 1   
    36    13    32 2   
    37    14    15 ar  
    38    14    16 ar  
    39    15    27 ar  
    40    15    48 1   
    41    16    28 ar  
    42    16    49 1   
    43    17    27 ar  
    44    17    28 ar  
    45    17    29 1   
    46    18    19 ar  
    47    18    50 1   
    48    19    20 ar  
    49    19    51 1   
    50    20    21 ar  
    51    20    52 1   
    52    21    53 1   
    53    22    23 ar  
    54    22    29 1   
    55    23    24 ar  
    56    23    54 1   
    57    24    25 ar  
    58    24    55 1   
    59    25    56 1   
    60    26    57 1   
    61    31    58 1   
@<TRIPOS>SUBSTRUCTURE
     1 AH4         1 TEMP              0 ****  ****    0 ROOT
