@<TRIPOS>MOLECULE
AH6
   34    35     1     0     0
SMALL
bcc


@<TRIPOS>ATOM
      1 C4           0.0200     1.4040    -0.1830 ca         1 AH6      -0.184000
      2 C5           0.9650     0.3710    -0.2190 ca         1 AH6      -0.092300
      3 C6           0.5460    -0.9440    -0.1290 ca         1 AH6      -0.069300
      4 C11         -5.0970    -1.6330     0.3500 c3         1 AH6      -0.093100
      5 C7           2.4180     0.7410    -0.3820 c6         1 AH6       0.141300
      6 C8           2.8480    -1.6360    -0.7860 c6         1 AH6       0.105000
      7 C9           1.5340    -2.0790    -0.1680 c6         1 AH6      -0.046100
      8 C10         -3.5920    -1.7060     0.2490 c3         1 AH6       0.138400
      9 C12         -1.9300     3.4230    -0.1030 c3         1 AH6       0.121700
     10 N1           3.2850    -0.3970    -0.1790 n          1 AH6      -0.485800
     11 C3          -1.3280     1.1360    -0.0510 ca         1 AH6       0.115100
     12 C1          -0.8210    -1.2180     0.0080 ca         1 AH6      -0.190000
     13 C2          -1.7590    -0.2050     0.0480 ca         1 AH6       0.123100
     14 O1          -3.0880    -0.3800     0.1720 os         1 AH6      -0.304900
     15 O2          -2.3020     2.0650    -0.0040 os         1 AH6      -0.296900
     16 O3           4.8400     0.6800     1.0930 o          1 AH6      -0.603100
     17 H1           0.3690     2.4260    -0.2600 ha         1 AH6       0.139000
     18 H2          -5.5020    -2.6420     0.4160 hc         1 AH6       0.047367
     19 H3          -5.4110    -1.0870     1.2390 hc         1 AH6       0.047367
     20 H4          -5.5330    -1.1540    -0.5270 hc         1 AH6       0.047367
     21 H5           2.5850     1.1550    -1.3830 h1         1 AH6       0.064700
     22 H6           2.6920     1.5210     0.3280 h1         1 AH6       0.064700
     23 H7           3.6190    -2.3950    -0.6510 h1         1 AH6       0.050200
     24 H8           2.7270    -1.4830    -1.8620 h1         1 AH6       0.050200
     25 H9           1.7160    -2.4540     0.8440 hc         1 AH6       0.055700
     26 H10          1.1280    -2.9160    -0.7410 hc         1 AH6       0.055700
     27 H11         -3.1750    -2.2180     1.1230 h1         1 AH6       0.030200
     28 H12         -3.2950    -2.2750    -0.6390 h1         1 AH6       0.030200
     29 H13         -1.2700     3.7280     0.7150 h1         1 AH6       0.039700
     30 H14         -1.4360     3.6440    -1.0530 h1         1 AH6       0.039700
     31 H15         -2.8490     4.0010    -0.0430 h1         1 AH6       0.039700
     32 H16          4.9260    -1.2910     0.6060 h5         1 AH6       0.006200
     33 H17         -1.1300    -2.2530     0.0800 ha         1 AH6       0.135000
     34 C13          4.4070    -0.3220     0.5480 c          1 AH6       0.673900
@<TRIPOS>BOND
     1     1     2 ar  
     2     1    11 ar  
     3     1    17 1   
     4     2     3 ar  
     5     2     5 1   
     6     3     7 1   
     7     3    12 ar  
     8     4     8 1   
     9     4    18 1   
    10     4    19 1   
    11     4    20 1   
    12     5    10 1   
    13     5    21 1   
    14     5    22 1   
    15     6     7 1   
    16     6    10 1   
    17     6    23 1   
    18     6    24 1   
    19     7    25 1   
    20     7    26 1   
    21     8    14 1   
    22     8    27 1   
    23     8    28 1   
    24     9    15 1   
    25     9    29 1   
    26     9    30 1   
    27     9    31 1   
    28    10    34 1   
    29    11    13 ar  
    30    11    15 1   
    31    12    13 ar  
    32    12    33 1   
    33    13    14 1   
    34    16    34 2   
    35    32    34 1   
@<TRIPOS>SUBSTRUCTURE
     1 AH6         1 TEMP              0 ****  ****    0 ROOT
