@<TRIPOS>MOLECULE
AH6
   34    35     1     0     0
SMALL
No Charge or Current Charge


@<TRIPOS>ATOM
      1 C4           0.0530     1.4030     0.0990 ca         1 AH6      -0.166000
      2 C5           0.9770     0.3510     0.2340 ca         1 AH6      -0.092300
      3 C6           0.5240    -0.9750     0.2870 ca         1 AH6      -0.069300
      4 C11         -5.2260    -1.6560    -0.0830 c3         1 AH6      -0.093100
      5 C7           2.4790     0.6330     0.3510 c6         1 AH6       0.141300
      6 C8           2.8160    -1.7820    -0.4240 c6         1 AH6       0.105000
      7 C9           1.5610    -2.0800     0.4300 c6         1 AH6      -0.046100
      8 C10         -3.6990    -1.7820     0.0370 c3         1 AH6       0.161600
      9 C12         -1.9030     3.5300    -0.1890 c3         1 AH6       0.144900
     10 N1           3.3470    -0.3960    -0.2930 n          1 AH6      -0.418800
     11 C3          -1.3320     1.1280     0.0130 ca         1 AH6       0.115100
     12 C1          -0.8500    -1.2620     0.2100 ca         1 AH6      -0.172000
     13 C2          -1.7860    -0.2120     0.0710 ca         1 AH6       0.123100
     14 O1          -3.1480    -0.4560    -0.0120 os         1 AH6      -0.328100
     15 O2          -2.2700     2.1410    -0.1220 os         1 AH6      -0.320100
     16 O3           5.0630     1.0680    -0.8050 o          1 AH6      -0.603100
     17 H1           0.4250     2.4220     0.0640 ha         1 AH6       0.121000
     18 H2          -5.6920    -2.6480    -0.0500 hc         1 AH6       0.047367
     19 H3          -5.6300    -1.0590     0.7430 hc         1 AH6       0.047367
     20 H4          -5.5010    -1.1770    -1.0300 hc         1 AH6       0.047367
     21 H5           2.6850     1.6170    -0.0950 h1         1 AH6       0.064700
     22 H6           2.7440     0.7010     1.4160 h1         1 AH6       0.064700
     23 H7           3.6060    -2.5010    -0.1640 h1         1 AH6       0.050200
     24 H8           2.5640    -1.9490    -1.4810 h1         1 AH6       0.050200
     25 H9           1.8510    -2.1660     1.4860 hc         1 AH6       0.055700
     26 H10          1.1410    -3.0520     0.1410 hc         1 AH6       0.055700
     27 H11         -3.4470    -2.2740     0.9850 h1         1 AH6       0.030200
     28 H12         -3.3170    -2.3930    -0.7920 h1         1 AH6       0.030200
     29 H13         -1.3810     3.8410     0.7250 h1         1 AH6       0.039700
     30 H14         -1.2510     3.7200    -1.0510 h1         1 AH6       0.039700
     31 H15         -2.7990     4.1540    -0.2970 h1         1 AH6       0.039700
     32 H16          5.0880    -0.9200    -1.3450 h5         1 AH6       0.006200
     33 H17         -1.1710    -2.2990     0.2570 ha         1 AH6       0.117000
     34 C13          4.5890    -0.0620    -0.8580 c          1 AH6       0.606900
@<TRIPOS>BOND
     1     1     2 ar  
     2     1    11 ar  
     3     1    17 1   
     4     2     3 ar  
     5     2     5 1   
     6     3     7 1   
     7     3    12 ar  
     8     4     8 1   
     9     4    18 1   
    10     4    19 1   
    11     4    20 1   
    12     5    10 1   
    13     5    21 1   
    14     5    22 1   
    15     6     7 1   
    16     6    10 1   
    17     6    23 1   
    18     6    24 1   
    19     7    25 1   
    20     7    26 1   
    21     8    14 1   
    22     8    27 1   
    23     8    28 1   
    24     9    15 1   
    25     9    29 1   
    26     9    30 1   
    27     9    31 1   
    28    10    34 1   
    29    11    13 ar  
    30    11    15 1   
    31    12    13 ar  
    32    12    33 1   
    33    13    14 1   
    34    16    34 2   
    35    32    34 1   
@<TRIPOS>SUBSTRUCTURE
     1 AH6         1 TEMP              0 ****  ****    0 ROOT
