@<TRIPOS>MOLECULE
AH7
   43    45     1     0     0
SMALL
No Charge or Current Charge


@<TRIPOS>ATOM
      1 C10          1.7820    -0.2240     0.2030 c6         1 AH7       0.322500
      2 C11          1.4580    -1.7460     0.1020 ca         1 AH7      -0.084300
      3 C12          1.5060    -2.4630    -1.1210 ca         1 AH7      -0.096500
      4 C13          1.2030    -3.8350    -1.1630 ca         1 AH7      -0.109000
      5 C14          0.8430    -4.5180     0.0080 ca         1 AH7      -0.103000
      6 C15          0.7830    -3.8240     1.2260 ca         1 AH7      -0.109000
      7 C16          1.0860    -2.4530     1.2710 ca         1 AH7      -0.096500
      8 C17          2.0990     0.4580    -1.1760 c6         1 AH7      -0.085900
      9 C18          2.5240     1.9490    -1.0490 c6         1 AH7      -0.126900
     10 C19          3.7330     2.1030    -0.1010 c6         1 AH7       0.180000
     11 C22          3.4990     1.4420     1.2760 c6         1 AH7      -0.126900
     12 C23          3.0280    -0.0370     1.1320 c6         1 AH7      -0.085900
     13 C25         -2.3770    -0.2290    -0.9310 ca         1 AH7       0.196400
     14 C05         -3.3200     0.4380    -0.1270 ca         1 AH7      -0.348600
     15 C06         -2.8220     1.1090     1.0070 ca         1 AH7       0.196400
     16 C08         -0.6970     0.4400     0.4770 ca         1 AH7       0.400900
     17 F20          4.8760     1.5440    -0.7000 f          1 AH7      -0.123000
     18 F21          4.0110     3.4690     0.0800 f          1 AH7      -0.123000
     19 N03         -5.6350     1.0810     0.3740 ns         1 AH7      -0.373400
     20 N07         -1.5100     1.1100     1.3090 nb         1 AH7      -0.249500
     21 N09          0.6460     0.4770     0.8390 nu         1 AH7      -0.917100
     22 N24         -1.0660    -0.2280    -0.6320 nb         1 AH7      -0.249500
     23 O01         -5.1710    -0.1430    -1.5020 o          1 AH7      -0.566100
     24 O04         -7.0720     0.9210     0.2660 oh         1 AH7      -0.434100
     25 H1           1.7720    -1.9770    -2.0540 ha         1 AH7       0.112000
     26 H2           1.2450    -4.3700    -2.1090 ha         1 AH7       0.114000
     27 H3           0.6070    -5.5790    -0.0280 ha         1 AH7       0.115000
     28 H4           0.4980    -4.3480     2.1360 ha         1 AH7       0.114000
     29 H5           1.0200    -1.9340     2.2240 ha         1 AH7       0.112000
     30 H6           2.9180    -0.0860    -1.6660 hc         1 AH7       0.069450
     31 H7           1.2390     0.3820    -1.8530 hc         1 AH7       0.069450
     32 H8           2.7740     2.3520    -2.0400 hc         1 AH7       0.071200
     33 H9           1.6820     2.5480    -0.6770 hc         1 AH7       0.071200
     34 H10          4.4230     1.4830     1.8690 hc         1 AH7       0.071200
     35 H11          2.7540     2.0230     1.8370 hc         1 AH7       0.071200
     36 H12          2.8270    -0.4450     2.1320 hc         1 AH7       0.069450
     37 H13          3.8570    -0.6380     0.7330 hc         1 AH7       0.069450
     38 H14         -2.6670    -0.7730    -1.8280 h4         1 AH7       0.032600
     39 H15         -3.4670     1.6580     1.6910 h4         1 AH7       0.032600
     40 H16         -5.2890     1.4020     1.2750 hn         1 AH7       0.327500
     41 H17          0.8330     0.9970     1.6910 hn         1 AH7       0.508000
     42 H18         -7.4100     1.8490     0.2660 ho         1 AH7       0.451000
     43 C02         -4.7720     0.4180    -0.4910 c          1 AH7       0.630700
@<TRIPOS>BOND
     1     1     2 1   
     2     1     8 1   
     3     1    12 1   
     4     1    21 1   
     5     2     3 ar  
     6     2     7 ar  
     7     3     4 ar  
     8     3    25 1   
     9     4     5 ar  
    10     4    26 1   
    11     5     6 ar  
    12     5    27 1   
    13     6     7 ar  
    14     6    28 1   
    15     7    29 1   
    16     8     9 1   
    17     8    30 1   
    18     8    31 1   
    19     9    10 1   
    20     9    32 1   
    21     9    33 1   
    22    10    11 1   
    23    10    17 1   
    24    10    18 1   
    25    11    12 1   
    26    11    34 1   
    27    11    35 1   
    28    12    36 1   
    29    12    37 1   
    30    13    14 ar  
    31    13    22 ar  
    32    13    38 1   
    33    14    15 ar  
    34    14    43 1   
    35    15    20 ar  
    36    15    39 1   
    37    16    20 ar  
    38    16    21 1   
    39    16    22 ar  
    40    19    24 1   
    41    19    40 1   
    42    19    43 1   
    43    21    41 1   
    44    23    43 2   
    45    24    42 1   
@<TRIPOS>SUBSTRUCTURE
     1 AH7         1 TEMP              0 ****  ****    0 ROOT
