@<TRIPOS>MOLECULE
AH7
   43    45     1     0     0
SMALL
abcg2


@<TRIPOS>ATOM
      1 C10          1.7200    -0.2270     0.1830 c6         1 AH7       0.322500
      2 C11          1.3930    -1.7160     0.0940 ca         1 AH7      -0.084300
      3 C12          1.7060    -2.4880    -1.0190 ca         1 AH7      -0.096500
      4 C13          1.4510    -3.8550    -1.0360 ca         1 AH7      -0.109000
      5 C14          0.8790    -4.4760     0.0640 ca         1 AH7      -0.103000
      6 C15          0.5660    -3.7150     1.1830 ca         1 AH7      -0.109000
      7 C16          0.8220    -2.3530     1.1950 ca         1 AH7      -0.096500
      8 C17          1.9930     0.4210    -1.1850 c6         1 AH7      -0.085900
      9 C18          2.4010     1.8840    -1.0560 c6         1 AH7      -0.126900
     10 C19          3.6210     2.0260    -0.1780 c6         1 AH7       0.180000
     11 C22          3.4620     1.3750     1.1740 c6         1 AH7      -0.126900
     12 C23          2.9910    -0.0730     1.0430 c6         1 AH7      -0.085900
     13 C25         -2.3010    -0.0150    -0.8980 ca         1 AH7       0.196400
     14 C05         -3.2500     0.5880    -0.0760 ca         1 AH7      -0.348600
     15 C06         -2.7340     1.1890     1.0730 ca         1 AH7       0.196400
     16 C08         -0.6380     0.5220     0.5330 ca         1 AH7       0.400900
     17 F20          4.7050     1.4700    -0.8190 f          1 AH7      -0.123000
     18 F21          3.9420     3.3500    -0.0250 f          1 AH7      -0.123000
     19 N03         -5.5450     0.8710     0.5140 ns         1 AH7      -0.373400
     20 N07         -1.4570     1.1640     1.3830 nb         1 AH7      -0.249500
     21 N09          0.6560     0.4830     0.8820 nu         1 AH7      -0.917100
     22 N24         -1.0180    -0.0590    -0.6100 nb         1 AH7      -0.249500
     23 O01         -5.0160     0.3890    -1.6350 o          1 AH7      -0.566100
     24 O04         -6.8790     0.7460     0.2630 oh         1 AH7      -0.434100
     25 H1           2.1450    -2.0410    -1.9000 ha         1 AH7       0.112000
     26 H2           1.7000    -4.4320    -1.9170 ha         1 AH7       0.114000
     27 H3           0.6790    -5.5400     0.0510 ha         1 AH7       0.115000
     28 H4           0.1190    -4.1830     2.0510 ha         1 AH7       0.114000
     29 H5           0.5640    -1.7810     2.0780 ha         1 AH7       0.112000
     30 H6           2.7970    -0.1220    -1.6840 hc         1 AH7       0.069450
     31 H7           1.1160     0.3370    -1.8230 hc         1 AH7       0.069450
     32 H8           2.6080     2.3020    -2.0440 hc         1 AH7       0.071200
     33 H9           1.5890     2.4740    -0.6230 hc         1 AH7       0.071200
     34 H10          4.4090     1.4050     1.7180 hc         1 AH7       0.071200
     35 H11          2.7520     1.9660     1.7580 hc         1 AH7       0.071200
     36 H12          2.8220    -0.4890     2.0390 hc         1 AH7       0.069450
     37 H13          3.7770    -0.6810     0.5900 hc         1 AH7       0.069450
     38 H14         -2.6030    -0.4850    -1.8270 h4         1 AH7       0.032600
     39 H15         -3.3740     1.7310     1.7620 h4         1 AH7       0.032600
     40 H16         -5.3040     0.7110     1.4820 hn         1 AH7       0.327500
     41 H17          0.8640     0.8930     1.7790 hn         1 AH7       0.508000
     42 H18         -7.2050     1.6440     0.1200 ho         1 AH7       0.451000
     43 C02         -4.6720     0.5910    -0.4830 c          1 AH7       0.630700
@<TRIPOS>BOND
     1     1     2 1   
     2     1     8 1   
     3     1    12 1   
     4     1    21 1   
     5     2     3 ar  
     6     2     7 ar  
     7     3     4 ar  
     8     3    25 1   
     9     4     5 ar  
    10     4    26 1   
    11     5     6 ar  
    12     5    27 1   
    13     6     7 ar  
    14     6    28 1   
    15     7    29 1   
    16     8     9 1   
    17     8    30 1   
    18     8    31 1   
    19     9    10 1   
    20     9    32 1   
    21     9    33 1   
    22    10    11 1   
    23    10    17 1   
    24    10    18 1   
    25    11    12 1   
    26    11    34 1   
    27    11    35 1   
    28    12    36 1   
    29    12    37 1   
    30    13    14 ar  
    31    13    22 ar  
    32    13    38 1   
    33    14    15 ar  
    34    14    43 1   
    35    15    20 ar  
    36    15    39 1   
    37    16    20 ar  
    38    16    21 1   
    39    16    22 ar  
    40    19    24 1   
    41    19    40 1   
    42    19    43 1   
    43    21    41 1   
    44    23    43 2   
    45    24    42 1   
@<TRIPOS>SUBSTRUCTURE
     1 AH7         1 TEMP              0 ****  ****    0 ROOT
