@<TRIPOS>MOLECULE
AH8
   21    21     1     0     0
SMALL
abcg2


@<TRIPOS>ATOM
      1 C1           0.9380     0.1950     0.5500 c5         1 AH8       0.355500
      2 N1           1.9340     0.0920    -0.5270 n2         1 AH8      -0.471200
      3 C2           0.2140     1.5270     0.3830 c5         1 AH8       0.120300
      4 N2           2.4120    -1.0150    -0.6900 n1         1 AH8       0.251000
      5 O2          -0.4310     1.8970     1.5720 oh         1 AH8      -0.711000
      6 C3          -0.8730     1.1620    -0.6360 c5         1 AH8       0.146300
      7 N3           2.8950    -2.0030    -0.9160 n1         1 AH8      -0.060000
      8 O3          -0.4550     1.3130    -1.9670 oh         1 AH8      -0.695000
      9 C4          -1.1220    -0.3290    -0.3630 c5         1 AH8       0.167300
     10 O4          -0.0480    -0.7820     0.4660 os         1 AH8      -0.444000
     11 C5          -2.4380    -0.5750     0.3400 c3         1 AH8       0.158600
     12 O5          -2.5960    -1.9580     0.5390 oh         1 AH8      -0.706000
     13 H1           1.4430     0.0940     1.5170 h2         1 AH8       0.077700
     14 H2           0.8840     2.3110     0.0100 h1         1 AH8       0.071700
     15 HO2          0.2330     2.1120     2.2340 ho         1 AH8       0.514000
     16 H3          -1.7730     1.7580    -0.4340 h1         1 AH8       0.060700
     17 HO3         -0.3250     2.2510    -2.1390 ho         1 AH8       0.511000
     18 H4          -1.1100    -0.8820    -1.3090 h1         1 AH8       0.087700
     19 H5          -2.4530    -0.0170     1.2850 h1         1 AH8       0.030700
     20 H5A         -3.2350    -0.1600    -0.2920 h1         1 AH8       0.030700
     21 HO5         -3.4220    -2.0980     1.0100 ho         1 AH8       0.504000
@<TRIPOS>BOND
     1     1     2 1   
     2     1     3 1   
     3     1    10 1   
     4     1    13 1   
     5     2     4 1   
     6     3     5 1   
     7     3     6 1   
     8     3    14 1   
     9     4     7 3   
    10     5    15 1   
    11     6     8 1   
    12     6     9 1   
    13     6    16 1   
    14     8    17 1   
    15     9    10 1   
    16     9    11 1   
    17     9    18 1   
    18    11    12 1   
    19    11    19 1   
    20    11    20 1   
    21    12    21 1   
@<TRIPOS>SUBSTRUCTURE
     1 AH8         1 TEMP              0 ****  ****    0 ROOT
