@<TRIPOS>MOLECULE
AH8
   21    21     1     0     0
SMALL
No Charge or Current Charge


@<TRIPOS>ATOM
      1 C1           0.7510    -0.0400     0.2590 c5         1 AH8       0.355500
      2 N1           2.1170    -0.0040    -0.3080 n2         1 AH8      -0.471200
      3 C2           0.1320     1.4190     0.2030 c5         1 AH8       0.120300
      4 N2           2.8460    -0.9690    -0.0320 n1         1 AH8       0.251000
      5 O2          -0.4030     1.8360     1.4780 oh         1 AH8      -0.711000
      6 C3          -1.0090     1.2520    -0.8660 c5         1 AH8       0.146300
      7 N3           3.6230    -1.7620     0.2140 n1         1 AH8      -0.060000
      8 O3          -0.5560     1.5220    -2.2080 oh         1 AH8      -0.695000
      9 C4          -1.3780    -0.2570    -0.6800 c5         1 AH8       0.167300
     10 O4          -0.0790    -0.8860    -0.5640 os         1 AH8      -0.444000
     11 C5          -2.2760    -0.5780     0.5600 c3         1 AH8       0.158600
     12 O5          -2.7560    -1.9350     0.5190 oh         1 AH8      -0.706000
     13 H1           0.7630    -0.4130     1.2930 h2         1 AH8       0.077700
     14 H2           0.8750     2.1530    -0.1440 h1         1 AH8       0.071700
     15 HO2          0.3520     2.1720     2.0200 ho         1 AH8       0.514000
     16 H3          -1.8710     1.8940    -0.6300 h1         1 AH8       0.060700
     17 HO3         -0.4350     2.4970    -2.2850 ho         1 AH8       0.511000
     18 H4          -1.8880    -0.6410    -1.5740 h1         1 AH8       0.087700
     19 H5          -1.7150    -0.4060     1.4870 h1         1 AH8       0.030700
     20 H5A         -3.1270     0.1170     0.5580 h1         1 AH8       0.030700
     21 HO5         -3.2930    -2.0770     1.3340 ho         1 AH8       0.504000
@<TRIPOS>BOND
     1     1     2 1   
     2     1     3 1   
     3     1    10 1   
     4     1    13 1   
     5     2     4 1   
     6     3     5 1   
     7     3     6 1   
     8     3    14 1   
     9     4     7 3   
    10     5    15 1   
    11     6     8 1   
    12     6     9 1   
    13     6    16 1   
    14     8    17 1   
    15     9    10 1   
    16     9    11 1   
    17     9    18 1   
    18    11    12 1   
    19    11    19 1   
    20    11    20 1   
    21    12    21 1   
@<TRIPOS>SUBSTRUCTURE
     1 AH8         1 TEMP              0 ****  ****    0 ROOT
