@<TRIPOS>MOLECULE
AH9
   31    32     1     0     0
SMALL
No Charge or Current Charge


@<TRIPOS>ATOM
      1 C4           0.4390     1.2730    -0.0230 ca         1 AH9      -0.167000
      2 C5          -0.6040     0.3440    -0.1900 ca         1 AH9      -0.090300
      3 C6          -0.3160    -1.0260    -0.2580 ca         1 AH9      -0.070300
      4 C11          2.6360     3.1400     0.3290 c3         1 AH9       0.144900
      5 C7          -2.0580     0.8100    -0.3240 c6         1 AH9       0.142300
      6 C8          -2.7010    -1.5560     0.4050 c6         1 AH9       0.105000
      7 C9          -1.4780    -1.9930    -0.4350 c6         1 AH9      -0.046100
      8 C10          3.7730    -2.3500     0.0420 c3         1 AH9       0.144900
      9 N1          -3.0570    -0.1130     0.2890 n          1 AH9      -0.419800
     10 C3           1.7790     0.8290     0.0780 ca         1 AH9       0.117100
     11 C1           1.0110    -1.4810    -0.1650 ca         1 AH9      -0.169000
     12 C2           2.0660    -0.5560     0.0050 ca         1 AH9       0.116100
     13 O1           3.3860    -0.9660     0.1040 os         1 AH9      -0.319100
     14 O2           2.8300     1.7170     0.2440 os         1 AH9      -0.320100
     15 O3          -4.5890     1.5420     0.8000 o          1 AH9      -0.602100
     16 H1           0.1940     2.3300     0.0230 ha         1 AH9       0.121000
     17 H2           3.5990     3.6470     0.4610 h1         1 AH9       0.040700
     18 H3           2.1710     3.5250    -0.5870 h1         1 AH9       0.040700
     19 H4           1.9970     3.3950     1.1850 h1         1 AH9       0.040700
     20 H5          -2.1500     1.8050     0.1350 h1         1 AH9       0.064700
     21 H6          -2.2950     0.9260    -1.3920 h1         1 AH9       0.064700
     22 H7          -3.5690    -2.1680     0.1210 h1         1 AH9       0.050200
     23 H8          -2.4900    -1.7680     1.4630 h1         1 AH9       0.050200
     24 H9          -1.7580    -2.0270    -1.4960 hc         1 AH9       0.056200
     25 H10         -1.1860    -3.0140    -0.1560 hc         1 AH9       0.056200
     26 H11          3.3060    -2.9220     0.8540 h1         1 AH9       0.039700
     27 H12          3.4790    -2.7940    -0.9180 h1         1 AH9       0.039700
     28 H13          4.8610    -2.4450     0.1410 h1         1 AH9       0.039700
     29 H14         -4.8670    -0.4360     1.3050 h5         1 AH9       0.006200
     30 H15          1.2030    -2.5480    -0.2240 ha         1 AH9       0.117000
     31 C12         -4.2580     0.3620     0.8400 c          1 AH9       0.605900
@<TRIPOS>BOND
     1     1     2 ar  
     2     1    10 ar  
     3     1    16 1   
     4     2     3 ar  
     5     2     5 1   
     6     3     7 1   
     7     3    11 ar  
     8     4    14 1   
     9     4    17 1   
    10     4    18 1   
    11     4    19 1   
    12     5     9 1   
    13     5    20 1   
    14     5    21 1   
    15     6     7 1   
    16     6     9 1   
    17     6    22 1   
    18     6    23 1   
    19     7    24 1   
    20     7    25 1   
    21     8    13 1   
    22     8    26 1   
    23     8    27 1   
    24     8    28 1   
    25     9    31 1   
    26    10    12 ar  
    27    10    14 1   
    28    11    12 ar  
    29    11    30 1   
    30    12    13 1   
    31    15    31 2   
    32    29    31 1   
@<TRIPOS>SUBSTRUCTURE
     1 AH9         1 TEMP              0 ****  ****    0 ROOT
