@<TRIPOS>MOLECULE
AH9
   31    32     1     0     0
SMALL
bcc


@<TRIPOS>ATOM
      1 C4           0.4650     1.2610     0.2150 ca         1 AH9      -0.185000
      2 C5          -0.6030     0.3550     0.2220 ca         1 AH9      -0.090300
      3 C6          -0.3540    -0.9970     0.0770 ca         1 AH9      -0.070300
      4 C11          2.6560     3.0210     0.1990 c3         1 AH9       0.121700
      5 C7          -1.9960     0.9030     0.4110 c6         1 AH9       0.142300
      6 C8          -2.6990    -1.4200     0.7870 c6         1 AH9       0.105000
      7 C9          -1.4780    -1.9980     0.0950 c6         1 AH9      -0.046100
      8 C10          3.6360    -2.2560    -0.3840 c3         1 AH9       0.121700
      9 N1          -3.0050    -0.1170     0.2350 n          1 AH9      -0.486800
     10 C3           1.7680     0.8320     0.0590 ca         1 AH9       0.117100
     11 C1           0.9670    -1.4350    -0.0850 ca         1 AH9      -0.187000
     12 C2           2.0250    -0.5480    -0.0980 ca         1 AH9       0.116100
     13 O1           3.3200    -0.8860    -0.2430 os         1 AH9      -0.295900
     14 O2           2.8520     1.6310     0.0390 os         1 AH9      -0.296900
     15 O3          -4.4870     1.1870    -0.9030 o          1 AH9      -0.602100
     16 H1           0.2490     2.3160     0.3370 ha         1 AH9       0.139000
     17 H2           3.6400     3.4790     0.1550 h1         1 AH9       0.040700
     18 H3           2.0350     3.4410    -0.5970 h1         1 AH9       0.040700
     19 H4           2.1990     3.2610     1.1630 h1         1 AH9       0.040700
     20 H5          -2.0850     1.3420     1.4120 h1         1 AH9       0.064700
     21 H6          -2.1850     1.7050    -0.3010 h1         1 AH9       0.064700
     22 H7          -3.5630    -2.0740     0.6650 h1         1 AH9       0.050200
     23 H8          -2.5150    -1.3220     1.8600 h1         1 AH9       0.050200
     24 H9          -1.7430    -2.2890    -0.9260 hc         1 AH9       0.056200
     25 H10         -1.1640    -2.9090     0.6090 hc         1 AH9       0.056200
     26 H11          3.3250    -2.8380     0.4870 h1         1 AH9       0.039700
     27 H12          3.1790    -2.6910    -1.2780 h1         1 AH9       0.039700
     28 H13          4.7170    -2.3160    -0.4790 h1         1 AH9       0.039700
     29 H14         -4.7910    -0.7740    -0.4660 h5         1 AH9       0.006200
     30 H15          1.1410    -2.4980    -0.1960 ha         1 AH9       0.135000
     31 C12         -4.1520     0.1210    -0.4150 c          1 AH9       0.672900
@<TRIPOS>BOND
     1     1     2 ar  
     2     1    10 ar  
     3     1    16 1   
     4     2     3 ar  
     5     2     5 1   
     6     3     7 1   
     7     3    11 ar  
     8     4    14 1   
     9     4    17 1   
    10     4    18 1   
    11     4    19 1   
    12     5     9 1   
    13     5    20 1   
    14     5    21 1   
    15     6     7 1   
    16     6     9 1   
    17     6    22 1   
    18     6    23 1   
    19     7    24 1   
    20     7    25 1   
    21     8    13 1   
    22     8    26 1   
    23     8    27 1   
    24     8    28 1   
    25     9    31 1   
    26    10    12 ar  
    27    10    14 1   
    28    11    12 ar  
    29    11    30 1   
    30    12    13 1   
    31    15    31 2   
    32    29    31 1   
@<TRIPOS>SUBSTRUCTURE
     1 AH9         1 TEMP              0 ****  ****    0 ROOT
