@<TRIPOS>MOLECULE
AHA
   21    20     1     0     0
SMALL
No Charge or Current Charge


@<TRIPOS>ATOM
      1 C1          -0.0500    -0.0380    -2.8770 c          1 AHA       0.716000
      2 C2           0.7650    -0.1830    -1.5790 c3         1 AHA      -0.203400
      3 C3          -0.1500     0.0230    -0.3470 c3         1 AHA      -0.054400
      4 C4           0.6020    -0.1070     0.9970 c3         1 AHA      -0.079400
      5 C5          -0.3120     0.0990     2.2260 c3         1 AHA      -0.078400
      6 C6           0.4460    -0.0330     3.5640 c3         1 AHA       0.144800
      7 N           -0.4490     0.1680     4.7170 n8         1 AHA      -0.996200
      8 O1          -0.5900    -1.0350    -3.3330 o          1 AHA      -0.743500
      9 O2          -0.1620     1.0750    -3.3680 o          1 AHA      -0.743500
     10 H21          1.5310     0.6000    -1.5180 hc         1 AHA       0.014200
     11 H22          1.1660    -1.2000    -1.4890 hc         1 AHA       0.014200
     12 H31         -0.9640    -0.7120    -0.3760 hc         1 AHA       0.039200
     13 H32         -0.6140     1.0160    -0.4050 hc         1 AHA       0.039200
     14 H41          1.4150     0.6290     1.0280 hc         1 AHA       0.022200
     15 H42          1.0650    -1.1000     1.0570 hc         1 AHA       0.022200
     16 H51         -1.1240    -0.6380     2.1970 hc         1 AHA       0.042200
     17 H52         -0.7740     1.0920     2.1670 hc         1 AHA       0.042200
     18 H61          1.2500     0.7150     3.6100 h1         1 AHA       0.021200
     19 H62          0.8950    -1.0330     3.6390 h1         1 AHA       0.021200
     20 HN1          0.1070     0.1380     5.5800 hn         1 AHA       0.381000
     21 HN2         -0.8100     1.1290     4.6950 hn         1 AHA       0.381000
@<TRIPOS>BOND
     1     1     2 1   
     2     1     8 1   
     3     1     9 1   
     4     2     3 1   
     5     2    10 1   
     6     2    11 1   
     7     3     4 1   
     8     3    12 1   
     9     3    13 1   
    10     4     5 1   
    11     4    14 1   
    12     4    15 1   
    13     5     6 1   
    14     5    16 1   
    15     5    17 1   
    16     6     7 1   
    17     6    18 1   
    18     6    19 1   
    19     7    20 1   
    20     7    21 1   
@<TRIPOS>SUBSTRUCTURE
     1 AHA         1 TEMP              0 ****  ****    0 ROOT
