@<TRIPOS>MOLECULE
AHA
   21    20     1     0     0
SMALL
bcc


@<TRIPOS>ATOM
      1 C1          -0.0160    -0.0360    -2.8920 c          1 AHA       0.926600
      2 C2           0.6950    -0.0150    -1.5270 c3         1 AHA      -0.203400
      3 C3          -0.2070    -0.0280    -0.3030 c3         1 AHA      -0.054400
      4 C4           0.5750    -0.0080     1.0040 c3         1 AHA      -0.079400
      5 C5          -0.3180     0.0010     2.2390 c3         1 AHA      -0.078400
      6 C6           0.4710     0.0060     3.5390 c3         1 AHA       0.144800
      7 N           -0.4180     0.0220     4.6930 n8         1 AHA      -0.885800
      8 O1          -1.2440    -0.2540    -2.9060 o          1 AHA      -0.848800
      9 O2           0.7090     0.1550    -3.8920 o          1 AHA      -0.848800
     10 H21          1.3530     0.8610    -1.4920 hc         1 AHA       0.014200
     11 H22          1.3720    -0.8770    -1.4880 hc         1 AHA       0.014200
     12 H31         -0.8500    -0.9120    -0.3260 hc         1 AHA       0.039200
     13 H32         -0.8820     0.8340    -0.3310 hc         1 AHA       0.039200
     14 H41          1.2310     0.8700     1.0250 hc         1 AHA       0.022200
     15 H42          1.2400    -0.8790     1.0440 hc         1 AHA       0.022200
     16 H51         -0.9790    -0.8720     2.2250 hc         1 AHA       0.042200
     17 H52         -0.9690     0.8820     2.2070 hc         1 AHA       0.042200
     18 H61          1.1790     0.8490     3.5210 h1         1 AHA       0.021200
     19 H62          1.0800    -0.9010     3.5880 h1         1 AHA       0.021200
     20 HN1          0.1320    -0.0010     5.5430 hn         1 AHA       0.325800
     21 HN2         -0.9110     0.9070     4.7160 hn         1 AHA       0.325800
@<TRIPOS>BOND
     1     1     2 1   
     2     1     8 1   
     3     1     9 1   
     4     2     3 1   
     5     2    10 1   
     6     2    11 1   
     7     3     4 1   
     8     3    12 1   
     9     3    13 1   
    10     4     5 1   
    11     4    14 1   
    12     4    15 1   
    13     5     6 1   
    14     5    16 1   
    15     5    17 1   
    16     6     7 1   
    17     6    18 1   
    18     6    19 1   
    19     7    20 1   
    20     7    21 1   
@<TRIPOS>SUBSTRUCTURE
     1 AHA         1 TEMP              0 ****  ****    0 ROOT
