@<TRIPOS>MOLECULE
AHB
   17    16     1     0     0
SMALL
No Charge or Current Charge


@<TRIPOS>ATOM
      1 N           14.8380    23.6580    23.6310 n8         1 AHB      -0.871800
      2 CA          14.0920    23.2580    22.3680 c3         1 AHB      -0.005500
      3 CB          13.4310    24.4970    21.6840 c3         1 AHB       0.053100
      4 OB          14.4650    25.4630    21.3490 oh         1 AHB      -0.694800
      5 CG          12.2330    25.1180    22.4860 c          1 AHB       0.655100
      6 OD1         11.8000    24.6900    23.5460 o          1 AHB      -0.648100
      7 ND2         11.6580    26.2090    21.9300 nt         1 AHB      -0.674000
      8 C           14.9160    22.4460    21.2880 c          1 AHB       0.942600
      9 O           14.7260    21.2390    21.1790 o          1 AHB      -0.816800
     10 OXT         15.7290    23.0610    20.5990 o          1 AHB      -0.816800
     11 H           15.5530    24.3510    23.3860 hn         1 AHB       0.322300
     12 H2          14.1960    24.1650    24.2490 hn         1 AHB       0.322300
     13 HA          13.2810    22.5820    22.6740 h1         1 AHB       0.070700
     14 HB          12.9730    24.1380    20.7520 h1         1 AHB       0.053700
     15 HOB         15.1930    24.9290    20.9360 ho         1 AHB       0.490000
     16 HD21        12.0400    26.5870    21.0760 hn         1 AHB       0.308500
     17 HD22        10.8900    26.6600    22.4030 hn         1 AHB       0.308500
@<TRIPOS>BOND
     1     1     2 1   
     2     1    11 1   
     3     1    12 1   
     4     2     3 1   
     5     2     8 1   
     6     2    13 1   
     7     3     4 1   
     8     3     5 1   
     9     3    14 1   
    10     4    15 1   
    11     5     6 2   
    12     5     7 1   
    13     7    16 1   
    14     7    17 1   
    15     8     9 1   
    16     8    10 1   
@<TRIPOS>SUBSTRUCTURE
     1 AHB         1 TEMP              0 ****  ****    0 ROOT
