@<TRIPOS>MOLECULE
AHB
   17    16     1     0     0
SMALL
bcc


@<TRIPOS>ATOM
      1 N           14.6390    23.9670    23.4660 n8         1 AHB      -0.871800
      2 CA          13.9900    23.3110    22.3370 c3         1 AHB      -0.005500
      3 CB          13.1850    24.2600    21.4160 c3         1 AHB       0.053100
      4 OB          14.0180    25.2010    20.7980 oh         1 AHB      -0.694800
      5 CG          12.0920    24.9460    22.2210 c          1 AHB       0.655100
      6 OD1         11.1530    24.3050    22.6770 o          1 AHB      -0.648100
      7 ND2         12.2570    26.2600    22.4070 nt         1 AHB      -0.674000
      8 C           15.0890    22.5880    21.5250 c          1 AHB       0.942600
      9 O           15.2540    21.3770    21.6990 o          1 AHB      -0.816800
     10 OXT         15.7640    23.3300    20.7540 o          1 AHB      -0.816800
     11 H           15.1770    24.7610    23.1430 hn         1 AHB       0.322300
     12 H2          13.9470    24.3330    24.1090 hn         1 AHB       0.322300
     13 HA          13.3000    22.5660    22.7370 h1         1 AHB       0.070700
     14 HB          12.6640    23.6330    20.6740 h1         1 AHB       0.053700
     15 HOB         14.8510    24.6840    20.6290 ho         1 AHB       0.490000
     16 HD21        13.0450    26.7360    22.0040 hn         1 AHB       0.308500
     17 HD22        11.5890    26.7930    22.9400 hn         1 AHB       0.308500
@<TRIPOS>BOND
     1     1     2 1   
     2     1    11 1   
     3     1    12 1   
     4     2     3 1   
     5     2     8 1   
     6     2    13 1   
     7     3     4 1   
     8     3     5 1   
     9     3    14 1   
    10     4    15 1   
    11     5     6 2   
    12     5     7 1   
    13     7    16 1   
    14     7    17 1   
    15     8     9 1   
    16     8    10 1   
@<TRIPOS>SUBSTRUCTURE
     1 AHB         1 TEMP              0 ****  ****    0 ROOT
