@<TRIPOS>MOLECULE
AHC
   22    22     1     0     0
SMALL
abcg2


@<TRIPOS>ATOM
      1 CA          -0.0090     0.4690    -1.8550 c3         1 AHC      -0.202400
      2 C           -0.0080     0.2620    -3.3800 c          1 AHC       0.717000
      3 OT1         -0.0610    -0.9070    -3.8110 o          1 AHC      -0.741500
      4 OT2          0.0470     1.3020    -4.0690 o          1 AHC      -0.741500
      5 CB          -0.0180    -0.8030    -1.0120 c3         1 AHC      -0.017100
      6 CG          -0.0060    -0.5080     0.4630 ca         1 AHC      -0.078300
      7 CD1         -1.1880    -0.3130     1.1760 ca         1 AHC      -0.083000
      8 CD2          1.1870    -0.3680     1.1690 ca         1 AHC      -0.083000
      9 CE1         -1.1860     0.0020     2.5260 ca         1 AHC      -0.174500
     10 CE2          1.2080    -0.0540     2.5190 ca         1 AHC      -0.174500
     11 CZ           0.0170     0.1350     3.2270 ca         1 AHC       0.246000
     12 NH           0.0260     0.3830     4.5890 nv         1 AHC      -1.074000
     13 HA1         -0.8750     1.0870    -1.5940 hc         1 AHC       0.019200
     14 HA2          0.8620     1.0780    -1.5890 hc         1 AHC       0.019200
     15 HB1          0.8490    -1.4160    -1.2690 hc         1 AHC       0.049200
     16 HB2         -0.8980    -1.3990    -1.2620 hc         1 AHC       0.049200
     17 HD1         -2.1400    -0.4130     0.6650 ha         1 AHC       0.110500
     18 HD2          2.1300    -0.5130     0.6530 ha         1 AHC       0.110500
     19 HE1         -2.1270     0.1420     3.0460 ha         1 AHC       0.095000
     20 HE2          2.1580     0.0450     3.0330 ha         1 AHC       0.095000
     21 HNH1         0.8710     0.8040     4.9410 hn         1 AHC       0.429000
     22 HNH2        -0.7890     0.8580     4.9430 hn         1 AHC       0.429000
@<TRIPOS>BOND
     1     1     2 1   
     2     1     5 1   
     3     1    13 1   
     4     1    14 1   
     5     2     3 1   
     6     2     4 1   
     7     5     6 1   
     8     5    15 1   
     9     5    16 1   
    10     6     7 ar  
    11     6     8 ar  
    12     7     9 ar  
    13     7    17 1   
    14     8    10 ar  
    15     8    18 1   
    16     9    11 ar  
    17     9    19 1   
    18    10    11 ar  
    19    10    20 1   
    20    11    12 1   
    21    12    21 1   
    22    12    22 1   
@<TRIPOS>SUBSTRUCTURE
     1 AHC         1 TEMP              0 ****  ****    0 ROOT
