@<TRIPOS>MOLECULE
AHC
   22    22     1     0     0
SMALL
No Charge or Current Charge


@<TRIPOS>ATOM
      1 CA          -0.0970     0.5480    -1.8900 c3         1 AHC      -0.202400
      2 C           -0.0700     0.1820    -3.3830 c          1 AHC       0.717000
      3 OT1         -1.1260    -0.1110    -3.9240 o          1 AHC      -0.741500
      4 OT2          1.0110     0.1520    -3.9500 o          1 AHC      -0.741500
      5 CB           0.0710    -0.7260    -1.0310 c3         1 AHC      -0.017100
      6 CG           0.0520    -0.4230     0.4620 ca         1 AHC      -0.078300
      7 CD1         -1.1640    -0.4270     1.1740 ca         1 AHC      -0.083000
      8 CD2          1.2500    -0.1310     1.1440 ca         1 AHC      -0.083000
      9 CE1         -1.1790    -0.1440     2.5520 ca         1 AHC      -0.174500
     10 CE2          1.2300     0.1510     2.5220 ca         1 AHC      -0.174500
     11 CZ           0.0170     0.1440     3.2260 ca         1 AHC       0.246000
     12 NH          -0.0010     0.4190     4.5660 nv         1 AHC      -1.074000
     13 HA1         -1.0710     0.9700    -1.6140 hc         1 AHC       0.019200
     14 HA2          0.7520     1.1950    -1.6360 hc         1 AHC       0.019200
     15 HB1          1.0110    -1.2220    -1.3010 hc         1 AHC       0.049200
     16 HB2         -0.7280    -1.4370    -1.2790 hc         1 AHC       0.049200
     17 HD1         -2.0970    -0.6470     0.6590 ha         1 AHC       0.110500
     18 HD2          2.1950    -0.1200     0.6050 ha         1 AHC       0.110500
     19 HE1         -2.1230    -0.1510     3.0900 ha         1 AHC       0.095000
     20 HE2          2.1600     0.3750     3.0370 ha         1 AHC       0.095000
     21 HNH1         0.8450     0.7440     5.0310 hn         1 AHC       0.429000
     22 HNH2        -0.8870     0.5320     5.0530 hn         1 AHC       0.429000
@<TRIPOS>BOND
     1     1     2 1   
     2     1     5 1   
     3     1    13 1   
     4     1    14 1   
     5     2     3 1   
     6     2     4 1   
     7     5     6 1   
     8     5    15 1   
     9     5    16 1   
    10     6     7 ar  
    11     6     8 ar  
    12     7     9 ar  
    13     7    17 1   
    14     8    10 ar  
    15     8    18 1   
    16     9    11 ar  
    17     9    19 1   
    18    10    11 ar  
    19    10    20 1   
    20    11    12 1   
    21    12    21 1   
    22    12    22 1   
@<TRIPOS>SUBSTRUCTURE
     1 AHC         1 TEMP              0 ****  ****    0 ROOT
