@<TRIPOS>MOLECULE
AHD
   23    22     1     0     0
SMALL
bcc


@<TRIPOS>ATOM
      1 C2           2.3990    -0.5130    -0.1950 c3         1 AHD      -0.092400
      2 C3           3.4710    -1.3190     0.5190 c3         1 AHD       0.135800
      3 C7           1.0070    -0.7940     0.3590 c3         1 AHD       0.002600
      4 C8          -0.1720    -0.1020    -0.3470 c3         1 AHD      -0.158600
      5 O12         -1.6960    -2.1180    -1.0310 o          1 AHD      -0.965167
      6 P9          -1.7410    -1.0520     0.1160 p5         1 AHD       1.200700
      7 O10         -2.9840    -0.1690     0.0120 o          1 AHD      -0.965167
      8 O11         -1.5620    -1.6840     1.5030 o          1 AHD      -0.965167
      9 P14         -0.2400     1.7270     0.0130 p5         1 AHD       1.200700
     10 O15         -0.5610     1.8210     1.5150 o          1 AHD      -0.965167
     11 O16         -1.3110     2.3410    -0.9000 o          1 AHD      -0.965167
     12 O17          1.1560     2.3090    -0.3150 o          1 AHD      -0.965167
     13 O13         -0.0510    -0.3060    -1.7650 oh         1 AHD      -0.674800
     14 N4           4.7970    -1.0380    -0.0240 n8         1 AHD      -0.896800
     15 H21          2.6070     0.5550    -0.1120 hc         1 AHD       0.063200
     16 H22          2.4280    -0.7570    -1.2610 hc         1 AHD       0.063200
     17 H31          3.2740    -2.3880     0.3880 h1         1 AHD      -0.002800
     18 H32          3.4000    -1.1310     1.6020 h1         1 AHD      -0.002800
     19 H71          0.8570    -1.8820     0.3270 hc         1 AHD      -0.004800
     20 H72          0.9730    -0.5300     1.4190 hc         1 AHD      -0.004800
     21 H13         -0.5870    -1.1310    -1.8620 ho         1 AHD       0.394000
     22 HN41         5.0240    -0.0670     0.1560 hn         1 AHD       0.284300
     23 HN42         5.4920    -1.5760     0.4770 hn         1 AHD       0.284300
@<TRIPOS>BOND
     1     1     2 1   
     2     1     3 1   
     3     1    15 1   
     4     1    16 1   
     5     2    14 1   
     6     2    17 1   
     7     2    18 1   
     8     3     4 1   
     9     3    19 1   
    10     3    20 1   
    11     4     6 1   
    12     4     9 1   
    13     4    13 1   
    14     5     6 1   
    15     6     7 1   
    16     6     8 1   
    17     9    10 1   
    18     9    11 1   
    19     9    12 1   
    20    13    21 1   
    21    14    22 1   
    22    14    23 1   
@<TRIPOS>SUBSTRUCTURE
     1 AHD         1 TEMP              0 ****  ****    0 ROOT
