@<TRIPOS>MOLECULE
AHD
   23    22     1     0     0
SMALL
No Charge or Current Charge


@<TRIPOS>ATOM
      1 C2           2.4700    -0.5920    -0.2860 c3         1 AHD      -0.092400
      2 C3           3.5450    -1.3300     0.5400 c3         1 AHD       0.135800
      3 C7           1.0300    -0.8420     0.2510 c3         1 AHD       0.002600
      4 C8          -0.1580    -0.1280    -0.4880 c3         1 AHD      -0.451000
      5 O12         -1.8790    -2.1540    -0.6730 o          1 AHD      -0.965167
      6 P9          -1.7500    -0.9030     0.1380 p5         1 AHD       1.358500
      7 O10         -2.9900    -0.1060    -0.1010 o          1 AHD      -0.965167
      8 O11         -1.6610    -1.3260     1.5680 o          1 AHD      -0.965167
      9 P14         -0.3970     1.6300     0.1420 p5         1 AHD       1.358500
     10 O15         -0.8010     1.7170     1.5760 o          1 AHD      -0.965167
     11 O16         -1.3550     2.3880    -0.7210 o          1 AHD      -0.965167
     12 O17          0.9110     2.3420     0.0020 o          1 AHD      -0.965167
     13 O13          0.0170    -0.3340    -1.9590 oh         1 AHD      -0.737000
     14 N4           4.9030    -1.0930     0.0210 n8         1 AHD      -1.007200
     15 H21          2.6930     0.4800    -0.2790 hc         1 AHD       0.063200
     16 H22          2.5370    -0.9270    -1.3280 hc         1 AHD       0.063200
     17 H31          3.3540    -2.4110     0.5210 h1         1 AHD      -0.002800
     18 H32          3.5140    -0.9870     1.5820 h1         1 AHD      -0.002800
     19 H71          0.8640    -1.9260     0.2160 hc         1 AHD      -0.004800
     20 H72          1.0090    -0.5700     1.3140 hc         1 AHD      -0.004800
     21 H13         -0.5710    -1.0950    -2.1860 ho         1 AHD       0.433000
     22 HN41         5.1160    -0.0930     0.1010 hn         1 AHD       0.339500
     23 HN42         5.5790    -1.5450     0.6450 hn         1 AHD       0.339500
@<TRIPOS>BOND
     1     1     2 1   
     2     1     3 1   
     3     1    15 1   
     4     1    16 1   
     5     2    14 1   
     6     2    17 1   
     7     2    18 1   
     8     3     4 1   
     9     3    19 1   
    10     3    20 1   
    11     4     6 1   
    12     4     9 1   
    13     4    13 1   
    14     5     6 1   
    15     6     7 1   
    16     6     8 1   
    17     9    10 1   
    18     9    11 1   
    19     9    12 1   
    20    13    21 1   
    21    14    22 1   
    22    14    23 1   
@<TRIPOS>SUBSTRUCTURE
     1 AHD         1 TEMP              0 ****  ****    0 ROOT
