@<TRIPOS>MOLECULE
AHH
   25    24     1     0     0
SMALL
No Charge or Current Charge


@<TRIPOS>ATOM
      1 N           -0.1610     1.6580    -0.1430 n8         1 AHH      -1.018200
      2 CA          -0.1920     0.1780    -0.0840 c3         1 AHH       0.168500
      3 CB           0.4020    -0.3310     1.2590 c3         1 AHH      -0.061400
      4 CG          -0.3850     0.1070     2.5200 c3         1 AHH      -0.072400
      5 O1           1.7870     0.2740    -1.6050 oh         1 AHH      -0.713000
      6 CD           0.1960    -0.4750     3.8280 c3         1 AHH      -0.077400
      7 CE          -0.5860    -0.0410     5.0820 c3         1 AHH      -0.085100
      8 C1           0.5440    -0.4380    -1.3170 c3         1 AHH      -0.015700
      9 C2          -0.4050    -0.4960    -2.5650 c          1 AHH       0.683000
     10 O3          -1.3100    -1.3180    -2.5770 o          1 AHH      -0.720500
     11 HN1         -0.6690     1.9610    -0.9800 hn         1 AHH       0.397000
     12 HN2          0.8100     1.9040    -0.3700 hn         1 AHH       0.397000
     13 HCA1        -1.2440    -0.1440    -0.1120 h1         1 AHH       0.062700
     14 HCB1         1.4440     0.0010     1.3490 hc         1 AHH       0.032200
     15 HCB2         0.4260    -1.4280     1.2360 hc         1 AHH       0.032200
     16 HCG1        -1.4310    -0.2100     2.4190 hc         1 AHH       0.040200
     17 HCG2        -0.3880     1.2020     2.5890 hc         1 AHH       0.040200
     18 HO11         1.6710     0.6120    -2.5280 ho         1 AHH       0.472000
     19 HCD1         1.2410    -0.1590     3.9330 hc         1 AHH       0.029200
     20 HCD2         0.1960    -1.5700     3.7700 hc         1 AHH       0.029200
     21 HCE1        -0.1370    -0.4780     5.9820 hc         1 AHH       0.022033
     22 HCE2        -0.5750     1.0500     5.1890 hc         1 AHH       0.022033
     23 HCE3        -1.6300    -0.3740     5.0230 hc         1 AHH       0.022033
     24 HC11         0.7750    -1.4850    -1.0820 h1         1 AHH       0.032700
     25 O2          -0.1250     0.2140    -3.5240 o          1 AHH      -0.720500
@<TRIPOS>BOND
     1     1     2 1   
     2     1    11 1   
     3     1    12 1   
     4     2     3 1   
     5     2     8 1   
     6     2    13 1   
     7     3     4 1   
     8     3    14 1   
     9     3    15 1   
    10     4     6 1   
    11     4    16 1   
    12     4    17 1   
    13     5     8 1   
    14     5    18 1   
    15     6     7 1   
    16     6    19 1   
    17     6    20 1   
    18     7    21 1   
    19     7    22 1   
    20     7    23 1   
    21     8     9 1   
    22     8    24 1   
    23     9    10 1   
    24     9    25 1   
@<TRIPOS>SUBSTRUCTURE
     1 AHH         1 TEMP              0 ****  ****    0 ROOT
