@<TRIPOS>MOLECULE
AHH
   25    24     1     0     0
SMALL
abcg2


@<TRIPOS>ATOM
      1 N           -0.4180     1.5070    -0.1400 n8         1 AHH      -1.018200
      2 CA          -0.2540     0.0610    -0.0680 c3         1 AHH       0.168500
      3 CB           0.4210    -0.3330     1.2440 c3         1 AHH      -0.061400
      4 CG          -0.3550     0.0900     2.4840 c3         1 AHH      -0.072400
      5 O1           1.7940    -0.0180    -1.3680 oh         1 AHH      -0.713000
      6 CD           0.2620    -0.4190     3.7800 c3         1 AHH      -0.077400
      7 CE          -0.5150     0.0140     5.0170 c3         1 AHH      -0.085100
      8 C1           0.4890    -0.5360    -1.2720 c3         1 AHH      -0.015700
      9 C2          -0.2630    -0.2610    -2.5920 c          1 AHH       0.683000
     10 O3          -1.4380    -0.6520    -2.6800 o          1 AHH      -0.720500
     11 HN1         -1.0290     1.7480    -0.9110 hn         1 AHH       0.397000
     12 HN2          0.4770     1.9340    -0.3480 hn         1 AHH       0.397000
     13 HCA1        -1.2560    -0.3790    -0.0670 h1         1 AHH       0.062700
     14 HCB1         1.4330     0.0840     1.2840 hc         1 AHH       0.032200
     15 HCB2         0.5420    -1.4220     1.2530 hc         1 AHH       0.032200
     16 HCG1        -1.3860    -0.2770     2.4070 hc         1 AHH       0.040200
     17 HCG2        -0.4270     1.1800     2.5140 hc         1 AHH       0.040200
     18 HO11         1.7900     0.3750    -2.2620 ho         1 AHH       0.472000
     19 HCD1         1.2950    -0.0670     3.8570 hc         1 AHH       0.029200
     20 HCD2         0.3180    -1.5120     3.7500 hc         1 AHH       0.029200
     21 HCE1        -0.0670    -0.3780     5.9310 hc         1 AHH       0.022033
     22 HCE2        -0.5440     1.1020     5.1040 hc         1 AHH       0.022033
     23 HCE3        -1.5470    -0.3390     4.9770 hc         1 AHH       0.022033
     24 HC11         0.5260    -1.6300    -1.1360 h1         1 AHH       0.032700
     25 O2           0.4050     0.3410    -3.4650 o          1 AHH      -0.720500
@<TRIPOS>BOND
     1     1     2 1   
     2     1    11 1   
     3     1    12 1   
     4     2     3 1   
     5     2     8 1   
     6     2    13 1   
     7     3     4 1   
     8     3    14 1   
     9     3    15 1   
    10     4     6 1   
    11     4    16 1   
    12     4    17 1   
    13     5     8 1   
    14     5    18 1   
    15     6     7 1   
    16     6    19 1   
    17     6    20 1   
    18     7    21 1   
    19     7    22 1   
    20     7    23 1   
    21     8     9 1   
    22     8    24 1   
    23     9    10 1   
    24     9    25 1   
@<TRIPOS>SUBSTRUCTURE
     1 AHH         1 TEMP              0 ****  ****    0 ROOT
