@<TRIPOS>MOLECULE
AHI
   22    21     1     0     0
SMALL
abcg2


@<TRIPOS>ATOM
      1 N10          1.9430     1.2760    -0.5530 nv         1 AHI      -1.040200
      2 C09          1.6870    -0.0020    -0.1580 c2         1 AHI       0.756100
      3 NP1          2.5700    -0.8410     0.2560 n2         1 AHI      -0.465700
      4 N08          0.3970    -0.4710    -0.3110 nu         1 AHI      -0.869400
      5 C07         -0.7340     0.3680     0.0430 c3         1 AHI       0.208800
      6 C06         -2.0200    -0.4280    -0.1140 c3         1 AHI      -0.121400
      7 C03         -3.2230     0.4460     0.1750 c3         1 AHI       0.099600
      8 N02         -4.4850    -0.3250     0.0410 nz         1 AHI      -0.973000
      9 O16          3.8500    -0.2710     0.2090 oh         1 AHI      -0.515000
     10 H101         2.7870     1.6930    -0.1970 hn         1 AHI       0.478000
     11 H102         1.1760     1.9200    -0.6290 hn         1 AHI       0.478000
     12 H08          0.3180    -1.4110     0.0530 hn         1 AHI       0.476000
     13 H071        -0.6640     0.7600     1.0650 h1         1 AHI       0.047700
     14 H072        -0.7780     1.2290    -0.6300 h1         1 AHI       0.047700
     15 H061        -2.0790    -0.8230    -1.1310 hc         1 AHI       0.078200
     16 H062        -2.0100    -1.2810     0.5710 hc         1 AHI       0.078200
     17 H031        -3.2040     0.8420     1.1880 hx         1 AHI       0.108700
     18 H032        -3.2910     1.2790    -0.5220 hx         1 AHI       0.108700
     19 H021        -4.5840    -0.7370    -0.8870 hn         1 AHI       0.515667
     20 H022        -4.5410    -1.0870     0.7160 hn         1 AHI       0.515667
     21 H023        -5.3010     0.2670     0.1920 hn         1 AHI       0.515667
     22 H16          4.3940    -0.9190     0.6650 ho         1 AHI       0.473000
@<TRIPOS>BOND
     1     1     2 1   
     2     1    10 1   
     3     1    11 1   
     4     2     3 2   
     5     2     4 1   
     6     3     9 1   
     7     4     5 1   
     8     4    12 1   
     9     5     6 1   
    10     5    13 1   
    11     5    14 1   
    12     6     7 1   
    13     6    15 1   
    14     6    16 1   
    15     7     8 1   
    16     7    17 1   
    17     7    18 1   
    18     8    19 1   
    19     8    20 1   
    20     8    21 1   
    21     9    22 1   
@<TRIPOS>SUBSTRUCTURE
     1 AHI         1 TEMP              0 ****  ****    0 ROOT
