@<TRIPOS>MOLECULE
AHI
   22    21     1     0     0
SMALL
No Charge or Current Charge


@<TRIPOS>ATOM
      1 N10          1.9460     0.9210    -1.1400 nv         1 AHI      -1.040200
      2 C09          1.7150    -0.0030    -0.2090 c2         1 AHI       0.756100
      3 NP1          2.5140    -0.5570     0.6290 n2         1 AHI      -0.465700
      4 N08          0.4470    -0.4020    -0.3840 nu         1 AHI      -0.869400
      5 C07         -0.6760     0.3260     0.2190 c3         1 AHI       0.208800
      6 C06         -2.0100    -0.3300    -0.1820 c3         1 AHI      -0.121400
      7 C03         -3.2250     0.4040     0.4070 c3         1 AHI       0.099600
      8 N02         -4.5100    -0.2660    -0.0090 nz         1 AHI      -0.973000
      9 O16          3.8400    -0.0340     0.6550 oh         1 AHI      -0.515000
     10 H101         2.6910     1.5430    -0.8590 hn         1 AHI       0.478000
     11 H102         1.0900     1.3570    -1.4400 hn         1 AHI       0.478000
     12 H08          0.3870    -1.4090    -0.2640 hn         1 AHI       0.476000
     13 H071        -0.5820     0.3210     1.3140 h1         1 AHI       0.047700
     14 H072        -0.6750     1.3730    -0.1140 h1         1 AHI       0.047700
     15 H061        -2.0890    -0.3400    -1.2760 hc         1 AHI       0.078200
     16 H062        -2.0180    -1.3730     0.1580 hc         1 AHI       0.078200
     17 H031        -3.1550     0.4080     1.5010 hx         1 AHI       0.108700
     18 H032        -3.2290     1.4440     0.0600 hx         1 AHI       0.108700
     19 H021        -4.6480    -0.2890    -1.0310 hn         1 AHI       0.515667
     20 H022        -4.5810    -1.2470     0.3040 hn         1 AHI       0.515667
     21 H023        -5.3500     0.2010     0.3680 hn         1 AHI       0.515667
     22 H16          4.3260    -0.5650     1.3340 ho         1 AHI       0.473000
@<TRIPOS>BOND
     1     1     2 1   
     2     1    10 1   
     3     1    11 1   
     4     2     3 2   
     5     2     4 1   
     6     3     9 1   
     7     4     5 1   
     8     4    12 1   
     9     5     6 1   
    10     5    13 1   
    11     5    14 1   
    12     6     7 1   
    13     6    15 1   
    14     6    16 1   
    15     7     8 1   
    16     7    17 1   
    17     7    18 1   
    18     8    19 1   
    19     8    20 1   
    20     8    21 1   
    21     9    22 1   
@<TRIPOS>SUBSTRUCTURE
     1 AHI         1 TEMP              0 ****  ****    0 ROOT
