@<TRIPOS>MOLECULE
AHK
   53    56     1     0     0
SMALL
No Charge or Current Charge


@<TRIPOS>ATOM
      1 Cl           3.8200     2.4390     0.6540 cl         1 AHK      -0.146000
      2 C23          3.0170     0.8820     0.4490 ca         1 AHK       0.122000
      3 C8           3.6820    -0.2080    -0.1670 cp         1 AHK       0.047000
      4 C7           5.0850    -0.0930    -0.6590 cp         1 AHK      -0.083000
      5 C6           5.3170     0.1120    -2.0400 ca         1 AHK      -0.088000
      6 C5           6.6210     0.2230    -2.5460 ca         1 AHK      -0.107000
      7 C4           7.7170     0.1250    -1.6760 ca         1 AHK      -0.081000
      8 C3           7.5070    -0.0850    -0.3040 ca         1 AHK      -0.105000
      9 C2           6.2020    -0.1960     0.2170 ca         1 AHK      -0.039300
     10 C1           6.0360    -0.4450     1.7160 c3         1 AHK      -0.040100
     11 C            5.9060    -1.9440     2.0480 c3         1 AHK      -0.087100
     12 C22          1.6940     0.7470     0.9050 ca         1 AHK      -0.085000
     13 C11          1.0090    -0.4730     0.7510 ca         1 AHK      -0.189300
     14 C10          1.6550    -1.5580     0.1320 ca         1 AHK      -0.080000
     15 C9           2.9770    -1.4240    -0.3240 ca         1 AHK      -0.089000
     16 C12         -0.4160    -0.6120     1.2360 c3         1 AHK       0.162900
     17 N           -1.3310    -0.2180     0.0960 ny         1 AHK      -0.828000
     18 C13         -2.8330    -0.2890     0.3610 c3         1 AHK       0.105600
     19 C14         -3.6340     0.1340    -0.8800 c3         1 AHK      -0.106700
     20 C15         -5.1150     0.0640    -0.6470 cc         1 AHK       0.374800
     21 N2          -5.9480     1.1770    -0.5660 na         1 AHK      -0.302600
     22 C21         -7.2060     0.7130    -0.3380 ca         1 AHK      -0.062200
     23 C16         -7.1190    -0.6480    -0.2840 ca         1 AHK       0.064400
     24 N1          -5.8090    -1.0790    -0.4750 nd         1 AHK      -0.580100
     25 C20         -8.4110     1.4080    -0.1770 ca         1 AHK      -0.114000
     26 C19         -9.5760     0.6450     0.0510 ca         1 AHK      -0.069000
     27 C18         -9.5010    -0.7680     0.1100 ca         1 AHK      -0.119000
     28 C17         -8.2630    -1.4290    -0.0580 ca         1 AHK      -0.044000
     29 H1           4.4720     0.1890    -2.7210 ha         1 AHK       0.110000
     30 H2           6.7820     0.3840    -3.6100 ha         1 AHK       0.125000
     31 H3           8.7300     0.2090    -2.0660 ha         1 AHK       0.127000
     32 H4           8.3670    -0.1680     0.3590 ha         1 AHK       0.125000
     33 H5           6.8940    -0.0370     2.2640 hc         1 AHK       0.051700
     34 H6           5.1590     0.0830     2.1070 hc         1 AHK       0.051700
     35 H7           5.8040    -2.0880     3.1300 hc         1 AHK       0.037367
     36 H8           5.0250    -2.3760     1.5590 hc         1 AHK       0.037367
     37 H9           6.7930    -2.4920     1.7090 hc         1 AHK       0.037367
     38 H10          1.2030     1.5950     1.3770 ha         1 AHK       0.129000
     39 H11          1.1360    -2.5060     0.0040 ha         1 AHK       0.123000
     40 H12          3.4700    -2.2680    -0.8000 ha         1 AHK       0.147000
     41 H13         -0.6300    -1.6440     1.5330 hx         1 AHK       0.104700
     42 H14         -0.6040     0.0390     2.0950 hx         1 AHK       0.104700
     43 H15         -1.0720     0.7410    -0.2190 hn         1 AHK       0.499000
     44 H17         -3.1050    -1.3140     0.6350 hx         1 AHK       0.118700
     45 H18         -3.0860     0.3660     1.2010 hx         1 AHK       0.118700
     46 H19         -3.3500     1.1530    -1.1660 hc         1 AHK       0.069200
     47 H20         -3.3710    -0.5170    -1.7210 hc         1 AHK       0.069200
     48 H21         -5.6610     2.1430    -0.6620 hn         1 AHK       0.362000
     49 H23         -8.4490     2.4940    -0.2250 ha         1 AHK       0.128000
     50 H24        -10.5340     1.1440     0.1820 ha         1 AHK       0.129000
     51 H25        -10.4030    -1.3500     0.2860 ha         1 AHK       0.129000
     52 H26         -8.1950    -2.5130    -0.0150 ha         1 AHK       0.135000
     53 H16         -1.0910    -0.7990    -0.7340 hn         1 AHK       0.499000
@<TRIPOS>BOND
     1     1     2 1   
     2     2     3 ar  
     3     2    12 ar  
     4     3     4 1   
     5     3    15 ar  
     6     4     5 ar  
     7     4     9 ar  
     8     5     6 ar  
     9     5    29 1   
    10     6     7 ar  
    11     6    30 1   
    12     7     8 ar  
    13     7    31 1   
    14     8     9 ar  
    15     8    32 1   
    16     9    10 1   
    17    10    11 1   
    18    10    33 1   
    19    10    34 1   
    20    11    35 1   
    21    11    36 1   
    22    11    37 1   
    23    12    13 ar  
    24    12    38 1   
    25    13    14 ar  
    26    13    16 1   
    27    14    15 ar  
    28    14    39 1   
    29    15    40 1   
    30    16    17 1   
    31    16    41 1   
    32    16    42 1   
    33    17    18 1   
    34    17    43 1   
    35    17    53 1   
    36    18    19 1   
    37    18    44 1   
    38    18    45 1   
    39    19    20 1   
    40    19    46 1   
    41    19    47 1   
    42    20    21 1   
    43    20    24 2   
    44    21    22 1   
    45    21    48 1   
    46    22    23 ar  
    47    22    25 ar  
    48    23    24 1   
    49    23    28 ar  
    50    25    26 ar  
    51    25    49 1   
    52    26    27 ar  
    53    26    50 1   
    54    27    28 ar  
    55    27    51 1   
    56    28    52 1   
@<TRIPOS>SUBSTRUCTURE
     1 AHK         1 TEMP              0 ****  ****    0 ROOT
