@<TRIPOS>MOLECULE
AHK
   53    56     1     0     0
SMALL
abcg2


@<TRIPOS>ATOM
      1 CL           3.8300     2.2530     0.9580 cl         1 AHK      -0.146000
      2 C23          3.0080     0.7890     0.5350 ca         1 AHK       0.122000
      3 C8           3.6860    -0.2040    -0.1690 cp         1 AHK       0.047000
      4 C7           5.1030    -0.0610    -0.5850 cp         1 AHK      -0.083000
      5 C6           5.3750     0.2290    -1.9190 ca         1 AHK      -0.088000
      6 C5           6.6820     0.3550    -2.3670 ca         1 AHK      -0.107000
      7 C4           7.7280     0.1900    -1.4710 ca         1 AHK      -0.081000
      8 C3           7.4580    -0.1050    -0.1430 ca         1 AHK      -0.105000
      9 C2           6.1520    -0.2370     0.3250 ca         1 AHK      -0.039300
     10 C1           5.9120    -0.6250     1.7590 c3         1 AHK      -0.040100
     11 C            5.7570    -2.1350     1.9280 c3         1 AHK      -0.087100
     12 C22          1.6830     0.6430     0.9130 ca         1 AHK      -0.085000
     13 C11          0.9940    -0.5150     0.5720 ca         1 AHK      -0.189300
     14 C10          1.6450    -1.5100    -0.1450 ca         1 AHK      -0.080000
     15 C9           2.9730    -1.3520    -0.5060 ca         1 AHK      -0.089000
     16 C12         -0.4450    -0.6760     0.9560 c3         1 AHK       0.162900
     17 N           -1.3370    -0.0290    -0.0540 ny         1 AHK      -0.828000
     18 C13         -2.7830    -0.2290     0.2340 c3         1 AHK       0.105600
     19 C14         -3.6340     0.4960    -0.7900 c3         1 AHK      -0.106700
     20 C15         -5.0800     0.2910    -0.5010 cc         1 AHK       0.374800
     21 N2          -6.0410     1.0820    -1.0420 na         1 AHK      -0.302600
     22 C21         -7.2510     0.6220    -0.5910 ca         1 AHK      -0.062200
     23 C16         -6.9300    -0.4680     0.2340 ca         1 AHK       0.064400
     24 N1          -5.5660    -0.6450     0.2660 nd         1 AHK      -0.580100
     25 C20         -8.5590     1.0380    -0.8080 ca         1 AHK      -0.114000
     26 C19         -9.5530     0.3190    -0.1660 ca         1 AHK      -0.069000
     27 C18         -9.2510    -0.7740     0.6600 ca         1 AHK      -0.119000
     28 C17         -7.9450    -1.1800     0.8710 ca         1 AHK      -0.044000
     29 H1           4.5530     0.3590    -2.6120 ha         1 AHK       0.110000
     30 H2           6.8790     0.5820    -3.4070 ha         1 AHK       0.125000
     31 H3           8.7530     0.2890    -1.8040 ha         1 AHK       0.127000
     32 H4           8.2800    -0.2370     0.5520 ha         1 AHK       0.125000
     33 H5           6.7530    -0.2810     2.3650 hc         1 AHK       0.051700
     34 H6           5.0290    -0.1220     2.1540 hc         1 AHK       0.051700
     35 H7           5.5830    -2.3910     2.9730 hc         1 AHK       0.037367
     36 H8           4.9160    -2.5160     1.3470 hc         1 AHK       0.037367
     37 H9           6.6530    -2.6610     1.5980 hc         1 AHK       0.037367
     38 H10          1.1900     1.4290     1.4720 ha         1 AHK       0.129000
     39 H11          1.1200    -2.4170    -0.4170 ha         1 AHK       0.123000
     40 H12          3.4770    -2.1360    -1.0540 ha         1 AHK       0.147000
     41 H13         -0.7310    -1.7240     1.0010 hx         1 AHK       0.104700
     42 H14         -0.6700    -0.2100     1.9130 hx         1 AHK       0.104700
     43 H15         -1.1280     0.9710    -0.0980 hn         1 AHK       0.499000
     44 H17         -2.9630    -1.3020     0.2240 hx         1 AHK       0.118700
     45 H18         -2.9620     0.1460     1.2390 hx         1 AHK       0.118700
     46 H19         -3.4080     1.5650    -0.7850 hc         1 AHK       0.069200
     47 H20         -3.4100     0.1310    -1.7970 hc         1 AHK       0.069200
     48 H21         -5.8880     1.8680    -1.6540 hn         1 AHK       0.362000
     49 H23         -8.7920     1.8840    -1.4410 ha         1 AHK       0.128000
     50 H24        -10.5860     0.6080    -0.3030 ha         1 AHK       0.129000
     51 H25        -10.0590    -1.3090     1.1410 ha         1 AHK       0.129000
     52 H26         -7.7160    -2.0240     1.5080 ha         1 AHK       0.135000
     53 H16         -1.1160    -0.3960    -0.9820 hn         1 AHK       0.499000
@<TRIPOS>BOND
     1     1     2 1   
     2     2     3 ar  
     3     2    12 ar  
     4     3     4 1   
     5     3    15 ar  
     6     4     5 ar  
     7     4     9 ar  
     8     5     6 ar  
     9     5    29 1   
    10     6     7 ar  
    11     6    30 1   
    12     7     8 ar  
    13     7    31 1   
    14     8     9 ar  
    15     8    32 1   
    16     9    10 1   
    17    10    11 1   
    18    10    33 1   
    19    10    34 1   
    20    11    35 1   
    21    11    36 1   
    22    11    37 1   
    23    12    13 ar  
    24    12    38 1   
    25    13    14 ar  
    26    13    16 1   
    27    14    15 ar  
    28    14    39 1   
    29    15    40 1   
    30    16    17 1   
    31    16    41 1   
    32    16    42 1   
    33    17    18 1   
    34    17    43 1   
    35    17    53 1   
    36    18    19 1   
    37    18    44 1   
    38    18    45 1   
    39    19    20 1   
    40    19    46 1   
    41    19    47 1   
    42    20    21 1   
    43    20    24 2   
    44    21    22 1   
    45    21    48 1   
    46    22    23 ar  
    47    22    25 ar  
    48    23    24 1   
    49    23    28 ar  
    50    25    26 ar  
    51    25    49 1   
    52    26    27 ar  
    53    26    50 1   
    54    27    28 ar  
    55    27    51 1   
    56    28    52 1   
@<TRIPOS>SUBSTRUCTURE
     1 AHK         1 TEMP              0 ****  ****    0 ROOT
