@<TRIPOS>MOLECULE
AHN
   22    22     1     0     0
SMALL
abcg2


@<TRIPOS>ATOM
      1 C            3.0700     0.2430     0.0610 c          1 AHN       0.602100
      2 O            2.9840     1.4610     0.1600 o          1 AHN      -0.603100
      3 CT           4.3810    -0.4720     0.2790 c3         1 AHN      -0.181100
      4 N            2.0300    -0.5500    -0.2450 ns         1 AHN      -0.510900
      5 CA           0.6790    -0.0950    -0.4760 c3         1 AHN       0.099000
      6 CB          -0.3200    -0.7860     0.4520 c3         1 AHN      -0.110700
      7 CG          -1.7070    -0.2840     0.2380 cc         1 AHN       0.241300
      8 CD2         -2.7880    -0.9570    -0.2600 cd         1 AHN      -0.228000
      9 ND1         -2.0580     1.0120     0.5120 nc         1 AHN      -0.668000
     10 CE1         -3.3230     1.1140     0.1900 cd         1 AHN       0.391400
     11 NE2         -3.8080    -0.0500    -0.2790 na         1 AHN      -0.301500
     12 HT1          4.7430    -0.2630     1.2850 hc         1 AHN       0.057700
     13 HT2          4.3190    -1.5520     0.1540 hc         1 AHN       0.057700
     14 HT3          5.1240    -0.0860    -0.4190 hc         1 AHN       0.057700
     15 HN           2.1920    -1.5430    -0.3000 hn         1 AHN       0.303500
     16 HA1          0.6460     0.9810    -0.3210 h1         1 AHN       0.065200
     17 HA2          0.4020    -0.2820    -1.5180 h1         1 AHN       0.065200
     18 HB1         -0.2950    -1.8660     0.2830 hc         1 AHN       0.049200
     19 HB2         -0.0130    -0.6190     1.4880 hc         1 AHN       0.049200
     20 HD2         -2.9150    -1.9770    -0.5830 h4         1 AHN       0.156000
     21 HE1         -3.9280     2.0050     0.2670 h5         1 AHN       0.056100
     22 HE2         -4.7490    -0.2170    -0.5970 hn         1 AHN       0.352000
@<TRIPOS>BOND
     1     1     2 2   
     2     1     3 1   
     3     1     4 1   
     4     3    12 1   
     5     3    13 1   
     6     3    14 1   
     7     4     5 1   
     8     4    15 1   
     9     5     6 1   
    10     5    16 1   
    11     5    17 1   
    12     6     7 1   
    13     6    18 1   
    14     6    19 1   
    15     7     8 2   
    16     7     9 1   
    17     8    11 1   
    18     8    20 1   
    19     9    10 2   
    20    10    11 1   
    21    10    21 1   
    22    11    22 1   
@<TRIPOS>SUBSTRUCTURE
     1 AHN         1 TEMP              0 ****  ****    0 ROOT
