@<TRIPOS>MOLECULE
AHN
   22    22     1     0     0
SMALL
No Charge or Current Charge


@<TRIPOS>ATOM
      1 C            2.9740     0.0900     0.3780 c          1 AHN       0.602100
      2 O            2.6950     1.0440     1.0900 o          1 AHN      -0.603100
      3 CT           4.3480    -0.5670     0.3920 c3         1 AHN      -0.181100
      4 N            2.0770    -0.4700    -0.5020 ns         1 AHN      -0.510900
      5 CA           0.6880    -0.0310    -0.6790 c3         1 AHN       0.099000
      6 CB          -0.2370    -0.5630     0.4320 c3         1 AHN      -0.110700
      7 CG          -1.6740    -0.1770     0.2210 cc         1 AHN       0.241300
      8 CD2         -2.6980    -0.9760    -0.2020 cd         1 AHN      -0.228000
      9 ND1         -2.1050     1.0970     0.4570 nc         1 AHN      -0.668000
     10 CE1         -3.4030     1.1090     0.1810 cd         1 AHN       0.391400
     11 NE2         -3.8090    -0.1470    -0.2280 na         1 AHN      -0.301500
     12 HT1          5.0370    -0.0930     1.1010 hc         1 AHN       0.057700
     13 HT2          4.2300    -1.6370     0.5970 hc         1 AHN       0.057700
     14 HT3          4.7540    -0.5690    -0.6260 hc         1 AHN       0.057700
     15 HN           2.4090    -1.2550    -1.0510 hn         1 AHN       0.303500
     16 HA1          0.6550     1.0670    -0.6930 h1         1 AHN       0.065200
     17 HA2          0.3290    -0.3900    -1.6530 h1         1 AHN       0.065200
     18 HB1         -0.1560    -1.6560     0.4710 hc         1 AHN       0.049200
     19 HB2          0.1060    -0.1890     1.4040 hc         1 AHN       0.049200
     20 HD2         -2.7140    -2.0260    -0.4740 h4         1 AHN       0.156000
     21 HE1         -4.0830     1.9510     0.2520 h5         1 AHN       0.056100
     22 HE2         -4.7560    -0.3950    -0.4950 hn         1 AHN       0.352000
@<TRIPOS>BOND
     1     1     2 2   
     2     1     3 1   
     3     1     4 1   
     4     3    12 1   
     5     3    13 1   
     6     3    14 1   
     7     4     5 1   
     8     4    15 1   
     9     5     6 1   
    10     5    16 1   
    11     5    17 1   
    12     6     7 1   
    13     6    18 1   
    14     6    19 1   
    15     7     8 2   
    16     7     9 1   
    17     8    11 1   
    18     8    20 1   
    19     9    10 2   
    20    10    11 1   
    21    10    21 1   
    22    11    22 1   
@<TRIPOS>SUBSTRUCTURE
     1 AHN         1 TEMP              0 ****  ****    0 ROOT
