@<TRIPOS>MOLECULE
AHO
   26    25     1     0     0
SMALL
No Charge or Current Charge


@<TRIPOS>ATOM
      1 C1          -0.3890     0.0900    -3.8010 c          1 AHO       0.723000
      2 C2           0.0030    -0.5820    -2.4170 c3         1 AHO       0.020500
      3 C3          -0.2200     0.4060    -1.2400 c3         1 AHO      -0.099400
      4 C4          -0.1900    -0.2460     0.1660 c3         1 AHO      -0.103400
      5 C5          -0.4920     0.7580     1.2990 c3         1 AHO       0.097000
      6 C6           0.6450     0.2150     3.5220 c          1 AHO       0.604100
      7 C7           0.5390    -0.4860     4.8790 c3         1 AHO      -0.169100
      8 N1           1.3820    -1.1870    -2.3310 n8         1 AHO      -0.991200
      9 N2          -0.4700     0.1350     2.6410 n          1 AHO      -0.284300
     10 O1           0.3060     1.0060    -4.2260 o          1 AHO      -0.732500
     11 O2          -1.6650    -0.5860     3.0150 oh         1 AHO      -0.445100
     12 O3           1.6640     0.8210     3.2120 o          1 AHO      -0.589100
     13 OXT         -1.3320    -0.3770    -4.4280 o          1 AHO      -0.732500
     14 HC21        -0.7080    -1.4080    -2.2740 h1         1 AHO       0.043700
     15 HC31        -1.1990     0.8840    -1.3750 hc         1 AHO       0.043200
     16 HC32         0.5250     1.2100    -1.2880 hc         1 AHO       0.043200
     17 HC41         0.7950    -0.6930     0.3490 hc         1 AHO       0.043200
     18 HC42        -0.9250    -1.0590     0.2030 hc         1 AHO       0.043200
     19 HC51        -1.4830     1.1990     1.1330 h1         1 AHO       0.059200
     20 HC52         0.2380     1.5780     1.2620 h1         1 AHO       0.059200
     21 HC71         1.4480    -0.3790     5.4820 hc         1 AHO       0.057367
     22 HC72        -0.3410    -0.1080     5.4100 hc         1 AHO       0.057367
     23 HC73         0.2840    -1.5390     4.7190 hc         1 AHO       0.057367
     24 HN11         2.0730    -0.4550    -2.5330 hn         1 AHO       0.378000
     25 HN12         1.5720    -1.4450    -1.3560 hn         1 AHO       0.378000
     26 HO21        -2.2470     0.0790     3.4500 ho         1 AHO       0.437000
@<TRIPOS>BOND
     1     1     2 1   
     2     1    10 1   
     3     1    13 1   
     4     2     3 1   
     5     2     8 1   
     6     2    14 1   
     7     3     4 1   
     8     3    15 1   
     9     3    16 1   
    10     4     5 1   
    11     4    17 1   
    12     4    18 1   
    13     5     9 1   
    14     5    19 1   
    15     5    20 1   
    16     6     7 1   
    17     6     9 1   
    18     6    12 2   
    19     7    21 1   
    20     7    22 1   
    21     7    23 1   
    22     8    24 1   
    23     8    25 1   
    24     9    11 1   
    25    11    26 1   
@<TRIPOS>SUBSTRUCTURE
     1 AHO         1 TEMP              0 ****  ****    0 ROOT
