@<TRIPOS>MOLECULE
AHO
   26    25     1     0     0
SMALL
abcg2


@<TRIPOS>ATOM
      1 C1          -0.2490     0.0220    -3.6450 c          1 AHO       0.723000
      2 C2           0.0510    -0.6410    -2.2830 c3         1 AHO       0.020500
      3 C3          -0.3230     0.3570    -1.1740 c3         1 AHO      -0.099400
      4 C4          -0.2290    -0.2230     0.2320 c3         1 AHO      -0.103400
      5 C5          -0.5690     0.8220     1.2880 c3         1 AHO       0.097000
      6 C6           0.6120     0.2010     3.3710 c          1 AHO       0.604100
      7 C7           0.5120    -0.5560     4.6700 c3         1 AHO      -0.169100
      8 N1           1.4290    -1.1030    -2.2420 n8         1 AHO      -0.991200
      9 N2          -0.5290     0.3150     2.6450 n          1 AHO      -0.284300
     10 O1           0.7070     0.5730    -4.2270 o          1 AHO      -0.732500
     11 O2          -1.5860    -0.4900     2.9960 oh         1 AHO      -0.445100
     12 O3           1.6480     0.7190     2.9860 o          1 AHO      -0.589100
     13 OXT         -1.4360    -0.0050    -4.0260 o          1 AHO      -0.732500
     14 HC21        -0.6090    -1.5110    -2.1800 h1         1 AHO       0.043700
     15 HC31        -1.3450     0.7090    -1.3460 hc         1 AHO       0.043200
     16 HC32         0.3320     1.2340    -1.2560 hc         1 AHO       0.043200
     17 HC41         0.7800    -0.5950     0.4300 hc         1 AHO       0.043200
     18 HC42        -0.9090    -1.0750     0.3210 hc         1 AHO       0.043200
     19 HC51        -1.5680     1.2300     1.1180 h1         1 AHO       0.059200
     20 HC52         0.1260     1.6590     1.2300 h1         1 AHO       0.059200
     21 HC71         1.4740    -0.5190     5.1750 hc         1 AHO       0.057367
     22 HC72        -0.2430    -0.1310     5.3310 hc         1 AHO       0.057367
     23 HC73         0.2450    -1.6000     4.5050 hc         1 AHO       0.057367
     24 HN11         2.0180    -0.3460    -2.5670 hn         1 AHO       0.378000
     25 HN12         1.7100    -1.3040    -1.2910 hn         1 AHO       0.378000
     26 HO21        -2.2360     0.0900     3.4090 ho         1 AHO       0.437000
@<TRIPOS>BOND
     1     1     2 1   
     2     1    10 1   
     3     1    13 1   
     4     2     3 1   
     5     2     8 1   
     6     2    14 1   
     7     3     4 1   
     8     3    15 1   
     9     3    16 1   
    10     4     5 1   
    11     4    17 1   
    12     4    18 1   
    13     5     9 1   
    14     5    19 1   
    15     5    20 1   
    16     6     7 1   
    17     6     9 1   
    18     6    12 2   
    19     7    21 1   
    20     7    22 1   
    21     7    23 1   
    22     8    24 1   
    23     8    25 1   
    24     9    11 1   
    25    11    26 1   
@<TRIPOS>SUBSTRUCTURE
     1 AHO         1 TEMP              0 ****  ****    0 ROOT
