@<TRIPOS>MOLECULE
AHP
   24    23     1     0     0
SMALL
bcc


@<TRIPOS>ATOM
      1 N            3.6130    17.5690     7.9170 n8         1 AHP      -0.888800
      2 CA           4.3050    16.6830     6.9930 c3         1 AHP       0.018500
      3 C            5.5640    17.3650     6.4060 c          1 AHP       0.931600
      4 O            6.4160    16.5990     5.9110 o          1 AHP      -0.840800
      5 OXT          5.6140    18.6110     6.4450 o          1 AHP      -0.840800
      6 CB           3.4520    16.0980     5.8490 c3         1 AHP      -0.078400
      7 CG           3.0600    17.0290     4.6990 c3         1 AHP      -0.063400
      8 CD           2.0880    18.1860     4.9500 c3         1 AHP      -0.069400
      9 CE           0.6160    17.8080     5.1400 c3         1 AHP      -0.070400
     10 CZ           0.2240    17.2860     6.5160 c3         1 AHP      -0.086100
     11 H            2.6440    17.2940     8.0150 hn         1 AHP       0.324300
     12 H2           3.6220    18.5060     7.5370 hn         1 AHP       0.324300
     13 HA           4.6540    15.8140     7.5660 h1         1 AHP       0.040700
     14 HB2          4.0260    15.2760     5.4130 hc         1 AHP       0.018200
     15 HB3          2.5630    15.6280     6.2790 hc         1 AHP       0.018200
     16 HG2          3.9760    17.4440     4.2680 hc         1 AHP       0.033700
     17 HG3          2.6290    16.4090     3.9040 hc         1 AHP       0.033700
     18 HD2          2.4230    18.8030     5.7870 hc         1 AHP       0.038200
     19 HD3          2.1440    18.8340     4.0710 hc         1 AHP       0.038200
     20 HE2          0.0110    18.6950     4.9330 hc         1 AHP       0.018700
     21 HE3          0.3360    17.0750     4.3770 hc         1 AHP       0.018700
     22 HZ1         -0.8540    17.1270     6.5760 hc         1 AHP       0.027033
     23 HZ2          0.7020    16.3380     6.7580 hc         1 AHP       0.027033
     24 HZ3          0.4900    18.0000     7.2990 hc         1 AHP       0.027033
@<TRIPOS>BOND
     1     1     2 1   
     2     1    11 1   
     3     1    12 1   
     4     2     3 1   
     5     2     6 1   
     6     2    13 1   
     7     3     4 1   
     8     3     5 1   
     9     6     7 1   
    10     6    14 1   
    11     6    15 1   
    12     7     8 1   
    13     7    16 1   
    14     7    17 1   
    15     8     9 1   
    16     8    18 1   
    17     8    19 1   
    18     9    10 1   
    19     9    20 1   
    20     9    21 1   
    21    10    22 1   
    22    10    23 1   
    23    10    24 1   
@<TRIPOS>SUBSTRUCTURE
     1 AHP         1 TEMP              0 ****  ****    0 ROOT
