@<TRIPOS>MOLECULE
AHP
   24    23     1     0     0
SMALL
No Charge or Current Charge


@<TRIPOS>ATOM
      1 N            3.6650    17.6720     7.9520 n8         1 AHP      -0.888800
      2 CA           4.4170    16.7830     6.9880 c3         1 AHP       0.018500
      3 C            5.7210    17.3710     6.2820 c          1 AHP       0.931600
      4 O            6.6870    16.6290     6.1270 o          1 AHP      -0.840800
      5 OXT          5.7760    18.5720     6.0280 o          1 AHP      -0.840800
      6 CB           3.4430    16.1190     5.9680 c3         1 AHP      -0.078400
      7 CG           2.9930    16.9700     4.7430 c3         1 AHP      -0.063400
      8 CD           2.0910    18.2090     4.9990 c3         1 AHP      -0.069400
      9 CE           0.5690    17.9410     5.1360 c3         1 AHP      -0.070400
     10 CZ           0.1330    17.1260     6.3690 c3         1 AHP      -0.086100
     11 H            2.7700    17.2330     8.1850 hn         1 AHP       0.324300
     12 H2           3.4100    18.5360     7.4630 hn         1 AHP       0.324300
     13 HA           4.7850    15.9570     7.6120 h1         1 AHP       0.040700
     14 HB2          3.9530    15.2340     5.5690 hc         1 AHP       0.018200
     15 HB3          2.5720    15.7270     6.5010 hc         1 AHP       0.018200
     16 HG2          3.8920    17.3080     4.2130 hc         1 AHP       0.033700
     17 HG3          2.4750    16.3100     4.0360 hc         1 AHP       0.033700
     18 HD2          2.4470    18.7780     5.8630 hc         1 AHP       0.038200
     19 HD3          2.2160    18.8820     4.1410 hc         1 AHP       0.038200
     20 HE2          0.0600    18.9120     5.1750 hc         1 AHP       0.018700
     21 HE3          0.2050    17.4400     4.2300 hc         1 AHP       0.018700
     22 HZ1         -0.9550    17.1860     6.4930 hc         1 AHP       0.027033
     23 HZ2          0.3910    16.0680     6.2530 hc         1 AHP       0.027033
     24 HZ3          0.6010    17.5120     7.2820 hc         1 AHP       0.027033
@<TRIPOS>BOND
     1     1     2 1   
     2     1    11 1   
     3     1    12 1   
     4     2     3 1   
     5     2     6 1   
     6     2    13 1   
     7     3     4 1   
     8     3     5 1   
     9     6     7 1   
    10     6    14 1   
    11     6    15 1   
    12     7     8 1   
    13     7    16 1   
    14     7    17 1   
    15     8     9 1   
    16     8    18 1   
    17     8    19 1   
    18     9    10 1   
    19     9    20 1   
    20     9    21 1   
    21    10    22 1   
    22    10    23 1   
    23    10    24 1   
@<TRIPOS>SUBSTRUCTURE
     1 AHP         1 TEMP              0 ****  ****    0 ROOT
