@<TRIPOS>MOLECULE
AHQ
   35    37     1     0     0
SMALL
No Charge or Current Charge


@<TRIPOS>ATOM
      1 O5          -3.5270   -40.3310   -19.7810 oh         1 AHQ      -0.593100
      2 C5          -4.2040   -40.7980   -18.6680 ca         1 AHQ      -0.163900
      3 C4          -4.2090   -42.1830   -18.4140 ca         1 AHQ       0.157100
      4 O4          -3.5340   -43.0040   -19.2590 oh         1 AHQ      -0.569100
      5 C3A         -4.8950   -42.6850   -17.3060 ca         1 AHQ      -0.241300
      6 C3          -5.0190   -44.1210   -16.8590 c5         1 AHQ       0.015900
      7 C2          -6.2590   -43.9940   -15.8770 c5         1 AHQ       0.074500
      8 C2X         -6.2400   -45.1350   -14.7590 c          1 AHQ       0.719000
      9 O2B         -6.8710   -44.9630   -13.7220 o          1 AHQ      -0.752000
     10 O2A         -5.5910   -46.1600   -14.9330 o          1 AHQ      -0.752000
     11 N1          -6.1530   -42.5420   -15.4260 nu         1 AHQ      -0.890200
     12 C1A         -5.5780   -41.8390   -16.4700 ca         1 AHQ       0.346000
     13 C9A         -5.6470   -40.4510   -16.6930 ca         1 AHQ      -0.158300
     14 C6A         -4.9080   -39.9280   -17.7840 ca         1 AHQ       0.344000
     15 N6          -4.8370   -38.5390   -17.9550 nu         1 AHQ      -0.904200
     16 C7          -5.1870   -37.5830   -16.8540 c6         1 AHQ       0.079500
     17 C7X         -5.2240   -36.0390   -17.2520 c          1 AHQ       0.717000
     18 O7B         -5.3500   -35.7560   -18.4390 o          1 AHQ      -0.759500
     19 O7A         -4.6610   -35.2630   -16.4880 o          1 AHQ      -0.759500
     20 C8          -6.5300   -38.0450   -16.2420 c6         1 AHQ      -0.047400
     21 C9          -6.4670   -39.5230   -15.7530 c6         1 AHQ      -0.129400
     22 C9X         -7.8970   -40.0770   -15.5060 c          1 AHQ       0.708000
     23 O9B         -8.5990   -40.2930   -16.4830 o          1 AHQ      -0.748000
     24 O9A         -8.0830   -40.6500   -14.4420 o          1 AHQ      -0.748000
     25 HO5         -3.9070   -39.4680   -20.0550 ho         1 AHQ       0.423000
     26 HO4         -3.1470   -42.3970   -19.9290 ho         1 AHQ       0.441000
     27 H3          -5.2120   -44.8210   -17.6800 hc         1 AHQ       0.028700
     28 H3A         -4.1080   -44.4450   -16.3440 hc         1 AHQ       0.028700
     29 H2          -7.1840   -44.1280   -16.4560 h1         1 AHQ       0.014700
     30 HN1         -6.9350   -42.0550   -14.9610 hn         1 AHQ       0.519000
     31 HN6         -4.1920   -38.2020   -18.6660 hn         1 AHQ       0.459000
     32 H7          -4.4230   -37.6790   -16.0670 h1         1 AHQ       0.003700
     33 H8          -6.8120   -37.3880   -15.4080 hc         1 AHQ       0.049700
     34 H8A         -7.3170   -37.9330   -17.0000 hc         1 AHQ       0.049700
     35 H9          -5.9490   -39.5190   -14.7840 hc         1 AHQ       0.037700
@<TRIPOS>BOND
     1     1     2 1   
     2     1    25 1   
     3     2     3 ar  
     4     2    14 ar  
     5     3     4 1   
     6     3     5 ar  
     7     4    26 1   
     8     5     6 1   
     9     5    12 ar  
    10     6     7 1   
    11     6    27 1   
    12     6    28 1   
    13     7     8 1   
    14     7    11 1   
    15     7    29 1   
    16     8     9 1   
    17     8    10 1   
    18    11    12 1   
    19    11    30 1   
    20    12    13 ar  
    21    13    14 ar  
    22    13    21 1   
    23    14    15 1   
    24    15    16 1   
    25    15    31 1   
    26    16    17 1   
    27    16    20 1   
    28    16    32 1   
    29    17    18 1   
    30    17    19 1   
    31    20    21 1   
    32    20    33 1   
    33    20    34 1   
    34    21    22 1   
    35    21    35 1   
    36    22    23 1   
    37    22    24 1   
@<TRIPOS>SUBSTRUCTURE
     1 AHQ         1 TEMP              0 ****  ****    0 ROOT
