@<TRIPOS>MOLECULE
AHQ
   35    37     1     0     0
SMALL
abcg2


@<TRIPOS>ATOM
      1 O5          -3.5140   -40.2180   -19.7040 oh         1 AHQ      -0.593100
      2 C5          -4.2580   -40.7380   -18.6410 ca         1 AHQ      -0.163900
      3 C4          -4.2340   -42.1210   -18.4480 ca         1 AHQ       0.157100
      4 O4          -3.5430   -42.9230   -19.3170 oh         1 AHQ      -0.569100
      5 C3A         -4.9040   -42.6670   -17.3720 ca         1 AHQ      -0.241300
      6 C3          -5.0080   -44.0840   -16.8690 c5         1 AHQ       0.015900
      7 C2          -6.1740   -43.9700   -15.8580 c5         1 AHQ       0.074500
      8 C2X         -6.1500   -45.0070   -14.7210 c          1 AHQ       0.719000
      9 O2B         -6.3120   -44.6080   -13.5430 o          1 AHQ      -0.752000
     10 O2A         -6.0040   -46.2020   -15.0910 o          1 AHQ      -0.752000
     11 N1          -6.1090   -42.5630   -15.4320 nu         1 AHQ      -0.890200
     12 C1A         -5.5880   -41.8180   -16.4920 ca         1 AHQ       0.346000
     13 C9A         -5.6640   -40.4350   -16.6700 ca         1 AHQ      -0.158300
     14 C6A         -4.9480   -39.8950   -17.7600 ca         1 AHQ       0.344000
     15 N6          -4.9430   -38.5250   -17.9870 nu         1 AHQ      -0.904200
     16 C7          -5.1690   -37.6730   -16.8280 c6         1 AHQ       0.079500
     17 C7X         -5.0700   -36.1780   -17.2160 c          1 AHQ       0.717000
     18 O7B         -4.4790   -35.9060   -18.2920 o          1 AHQ      -0.759500
     19 O7A         -5.5410   -35.3520   -16.3960 o          1 AHQ      -0.759500
     20 C8          -6.4930   -38.0820   -16.2020 c6         1 AHQ      -0.047400
     21 C9          -6.4770   -39.5500   -15.7420 c6         1 AHQ      -0.129400
     22 C9X         -7.9340   -40.0840   -15.6050 c          1 AHQ       0.708000
     23 O9B         -8.6950   -39.9610   -16.5930 o          1 AHQ      -0.748000
     24 O9A         -8.2380   -40.6270   -14.5050 o          1 AHQ      -0.748000
     25 HO5         -4.1100   -39.8500   -20.3720 ho         1 AHQ       0.423000
     26 HO4         -3.1540   -42.3460   -19.9920 ho         1 AHQ       0.441000
     27 H3          -5.2110   -44.8210   -17.6440 hc         1 AHQ       0.028700
     28 H3A         -4.0890   -44.3940   -16.3560 hc         1 AHQ       0.028700
     29 H2          -7.1120   -44.1460   -16.4070 h1         1 AHQ       0.014700
     30 HN1         -6.9210   -42.1860   -14.9580 hn         1 AHQ       0.519000
     31 HN6         -4.1980   -38.1910   -18.5800 hn         1 AHQ       0.459000
     32 H7          -4.3720   -37.8300   -16.0790 h1         1 AHQ       0.003700
     33 H8          -6.7210   -37.4340   -15.3570 hc         1 AHQ       0.049700
     34 H8A         -7.2800   -37.9530   -16.9480 hc         1 AHQ       0.049700
     35 H9          -6.0360   -39.5990   -14.7420 hc         1 AHQ       0.037700
@<TRIPOS>BOND
     1     1     2 1   
     2     1    25 1   
     3     2     3 ar  
     4     2    14 ar  
     5     3     4 1   
     6     3     5 ar  
     7     4    26 1   
     8     5     6 1   
     9     5    12 ar  
    10     6     7 1   
    11     6    27 1   
    12     6    28 1   
    13     7     8 1   
    14     7    11 1   
    15     7    29 1   
    16     8     9 1   
    17     8    10 1   
    18    11    12 1   
    19    11    30 1   
    20    12    13 ar  
    21    13    14 ar  
    22    13    21 1   
    23    14    15 1   
    24    15    16 1   
    25    15    31 1   
    26    16    17 1   
    27    16    20 1   
    28    16    32 1   
    29    17    18 1   
    30    17    19 1   
    31    20    21 1   
    32    20    33 1   
    33    20    34 1   
    34    21    22 1   
    35    21    35 1   
    36    22    23 1   
    37    22    24 1   
@<TRIPOS>SUBSTRUCTURE
     1 AHQ         1 TEMP              0 ****  ****    0 ROOT
