@<TRIPOS>MOLECULE
AHR
   20    20     1     0     0
SMALL
bcc


@<TRIPOS>ATOM
      1 O5          56.4380    22.6720    55.0200 oh         1 AHR      -0.582800
      2 C5          56.1810    23.7770    54.1880 c3         1 AHR       0.141400
      3 C4          55.4680    23.3030    52.9440 c5         1 AHR       0.150100
      4 O4          56.3170    22.4720    52.1650 os         1 AHR      -0.421600
      5 C3          55.0650    24.4410    52.0130 c5         1 AHR       0.118100
      6 O3          53.8690    25.0250    52.4450 oh         1 AHR      -0.581800
      7 C2          54.9990    23.7180    50.6800 c5         1 AHR       0.078100
      8 O2          55.0750    24.6160    49.6100 oh         1 AHR      -0.590800
      9 C1          56.1720    22.7460    50.7850 c5         1 AHR       0.307900
     10 O1          55.9060    21.5940    50.0640 oh         1 AHR      -0.595800
     11 HO5         56.8580    22.9920    55.8240 ho         1 AHR       0.404000
     12 H51         55.5380    24.5190    54.6800 h1         1 AHR       0.028200
     13 H52         57.1040    24.2950    53.8940 h1         1 AHR       0.028200
     14 H4          54.5640    22.7480    53.2390 h1         1 AHR       0.079700
     15 H3          55.8800    25.1810    51.9680 h1         1 AHR       0.051700
     16 HO3         53.7080    25.8150    51.9190 ho         1 AHR       0.421000
     17 H2          54.0680    23.1310    50.6540 h1         1 AHR       0.072700
     18 HO2         54.8740    24.1440    48.7950 ho         1 AHR       0.422000
     19 H1          57.0960    23.2230    50.4270 h2         1 AHR       0.047700
     20 HO1         56.7280    21.1150    49.9120 ho         1 AHR       0.424000
@<TRIPOS>BOND
     1     1     2 1   
     2     1    11 1   
     3     2     3 1   
     4     2    12 1   
     5     2    13 1   
     6     3     4 1   
     7     3     5 1   
     8     3    14 1   
     9     4     9 1   
    10     5     6 1   
    11     5     7 1   
    12     5    15 1   
    13     6    16 1   
    14     7     8 1   
    15     7     9 1   
    16     7    17 1   
    17     8    18 1   
    18     9    10 1   
    19     9    19 1   
    20    10    20 1   
@<TRIPOS>SUBSTRUCTURE
     1 AHR         1 TEMP              0 ****  ****    0 ROOT
