@<TRIPOS>MOLECULE
AHR
   20    20     1     0     0
SMALL
No Charge or Current Charge


@<TRIPOS>ATOM
      1 O5          56.3460    22.5550    55.1160 oh         1 AHR      -0.705000
      2 C5          56.1980    23.6980    54.2510 c3         1 AHR       0.164600
      3 C4          55.5170    23.3170    52.9060 c5         1 AHR       0.173300
      4 O4          56.4130    22.5190    52.0760 os         1 AHR      -0.468000
      5 C3          55.1440    24.5320    52.0020 c5         1 AHR       0.141300
      6 O3          53.9820    25.2600    52.4250 oh         1 AHR      -0.704000
      7 C2          54.9000    23.7460    50.6890 c5         1 AHR       0.101300
      8 O2          54.7350    24.5860    49.5280 oh         1 AHR      -0.713000
      9 C1          56.2010    22.8720    50.7000 c5         1 AHR       0.354300
     10 O1          56.0700    21.6910    49.9360 oh         1 AHR      -0.718000
     11 HO5         56.8290    22.8620    55.9190 ho         1 AHR       0.503000
     12 H51         55.5820    24.4610    54.7470 h1         1 AHR       0.028200
     13 H52         57.1750    24.1510    54.0380 h1         1 AHR       0.028200
     14 H4          54.6200    22.7210    53.1250 h1         1 AHR       0.079700
     15 H3          56.0020    25.2130    51.8960 h1         1 AHR       0.051700
     16 HO3         53.6620    25.7400    51.6230 ho         1 AHR       0.520000
     17 H2          54.0220    23.0920    50.7990 h1         1 AHR       0.072700
     18 HO2         54.7580    23.9890    48.7420 ho         1 AHR       0.521000
     19 H1          57.0580    23.4630    50.3480 h2         1 AHR       0.047700
     20 HO1         56.6940    21.0600    50.3600 ho         1 AHR       0.523000
@<TRIPOS>BOND
     1     1     2 1   
     2     1    11 1   
     3     2     3 1   
     4     2    12 1   
     5     2    13 1   
     6     3     4 1   
     7     3     5 1   
     8     3    14 1   
     9     4     9 1   
    10     5     6 1   
    11     5     7 1   
    12     5    15 1   
    13     6    16 1   
    14     7     8 1   
    15     7     9 1   
    16     7    17 1   
    17     8    18 1   
    18     9    10 1   
    19     9    19 1   
    20    10    20 1   
@<TRIPOS>SUBSTRUCTURE
     1 AHR         1 TEMP              0 ****  ****    0 ROOT
