@<TRIPOS>MOLECULE
AHS
   49    49     1     0     0
SMALL
bcc


@<TRIPOS>ATOM
      1 N           -0.9700     1.6740     0.7130 n8         1 AHS      -0.921800
      2 CA          -1.0310     0.3640     0.0580 c3         1 AHS       0.131500
      3 CB          -2.2590     0.2180    -0.8390 c3         1 AHS      -0.094400
      4 CG          -3.6160     0.3750    -0.1530 c6         1 AHS      -0.061700
      5 CD1         -3.8260    -0.6280     0.9810 c6         1 AHS      -0.072900
      6 CD2         -4.7440     0.2620    -1.1810 c6         1 AHS      -0.072900
      7 CE1         -5.2050    -0.4850     1.6190 c6         1 AHS      -0.072900
      8 CE2         -6.1220     0.4090    -0.5440 c6         1 AHS      -0.072900
      9 CZ          -6.3170    -0.6000     0.5820 c6         1 AHS      -0.073400
     10 CH           0.2680     0.1880    -0.7500 c3         1 AHS       0.126100
     11 OH           0.5090     1.3530    -1.5080 oh         1 AHS      -0.596800
     12 CM           1.4410    -0.1430     0.1730 c3         1 AHS       0.120000
     13 N1           2.7070    -0.2780    -0.5000 n          1 AHS      -0.535800
     14 CB2          3.6180     0.8370    -0.4360 c3         1 AHS       0.132000
     15 CG2          4.4150     0.9430     0.8700 c3         1 AHS      -0.085700
     16 CD3          5.2630    -0.2950     1.1300 c3         1 AHS      -0.076600
     17 CD4          5.2800     2.1990     0.8410 c3         1 AHS      -0.076600
     18 C            3.0090    -1.4440    -1.2110 c          1 AHS       1.024600
     19 O            4.1080    -1.4930    -1.8090 o          1 AHS      -0.852300
     20 OXT          2.1430    -2.3510    -1.1930 o          1 AHS      -0.852300
     21 H           -1.7860     2.2320     0.5070 hn         1 AHS       0.337800
     22 H2          -0.9260     1.5860     1.7170 hn         1 AHS       0.337800
     23 HA          -1.0590    -0.4280     0.8140 h1         1 AHS       0.040700
     24 HB2         -2.1880     0.9450    -1.6570 hc         1 AHS       0.056700
     25 HB3         -2.2200    -0.7710    -1.3100 hc         1 AHS       0.056700
     26 HG          -3.6830     1.3820     0.2830 hc         1 AHS       0.030700
     27 HD12        -3.7070    -1.6450     0.5870 hc         1 AHS       0.042200
     28 HD13        -3.0570    -0.5020     1.7460 hc         1 AHS       0.042200
     29 HD23        -4.6070     1.0170    -1.9600 hc         1 AHS       0.042200
     30 HD22        -4.6790    -0.7130    -1.6800 hc         1 AHS       0.042200
     31 HE12        -5.3360    -1.2380     2.4000 hc         1 AHS       0.031700
     32 HE13        -5.2710     0.4900     2.1150 hc         1 AHS       0.031700
     33 HE23        -6.2330     1.4240    -0.1470 hc         1 AHS       0.031700
     34 HE22        -6.9000     0.2880    -1.3020 hc         1 AHS       0.031700
     35 HZ2         -6.3150    -1.6110     0.1610 hc         1 AHS       0.033200
     36 HZ3         -7.2940    -0.4620     1.0530 hc         1 AHS       0.033200
     37 HH           0.1500    -0.6380    -1.4580 h1         1 AHS       0.097700
     38 HO           0.3160     2.0740    -0.8860 ho         1 AHS       0.400000
     39 HM1          1.5350     0.6490     0.9250 h1         1 AHS       0.018700
     40 HM2          1.1960    -1.0560     0.7240 h1         1 AHS       0.018700
     41 HB21         4.3140     0.7710    -1.2720 h1         1 AHS       0.034200
     42 HB22         3.0540     1.7670    -0.5670 h1         1 AHS       0.034200
     43 HG2          3.7000     1.0450     1.6960 hc         1 AHS       0.022700
     44 HD31         5.8070    -0.2040     2.0730 hc         1 AHS       0.022533
     45 HD32         4.6520    -1.1950     1.1850 hc         1 AHS       0.022533
     46 HD33         5.9960    -0.4410     0.3340 hc         1 AHS       0.022533
     47 HD41         4.6800     3.1000     0.6990 hc         1 AHS       0.022533
     48 HD42         5.8400     2.3190     1.7700 hc         1 AHS       0.022533
     49 HD43         6.0050     2.1520     0.0240 hc         1 AHS       0.022533
@<TRIPOS>BOND
     1     1     2 1   
     2     1    21 1   
     3     1    22 1   
     4     2     3 1   
     5     2    10 1   
     6     2    23 1   
     7     3     4 1   
     8     3    24 1   
     9     3    25 1   
    10     4     5 1   
    11     4     6 1   
    12     4    26 1   
    13     5     7 1   
    14     5    27 1   
    15     5    28 1   
    16     6     8 1   
    17     6    29 1   
    18     6    30 1   
    19     7     9 1   
    20     7    31 1   
    21     7    32 1   
    22     8     9 1   
    23     8    33 1   
    24     8    34 1   
    25     9    35 1   
    26     9    36 1   
    27    10    11 1   
    28    10    12 1   
    29    10    37 1   
    30    11    38 1   
    31    12    13 1   
    32    12    39 1   
    33    12    40 1   
    34    13    14 1   
    35    13    18 1   
    36    14    15 1   
    37    14    41 1   
    38    14    42 1   
    39    15    16 1   
    40    15    17 1   
    41    15    43 1   
    42    16    44 1   
    43    16    45 1   
    44    16    46 1   
    45    17    47 1   
    46    17    48 1   
    47    17    49 1   
    48    18    19 1   
    49    18    20 1   
@<TRIPOS>SUBSTRUCTURE
     1 AHS         1 TEMP              0 ****  ****    0 ROOT
