@<TRIPOS>MOLECULE
AHS
   49    49     1     0     0
SMALL
No Charge or Current Charge


@<TRIPOS>ATOM
      1 N           -1.0700     1.7320     0.8750 n8         1 AHS      -0.921800
      2 CA          -1.0470     0.4540     0.1180 c3         1 AHS       0.131500
      3 CB          -2.2860     0.3730    -0.8160 c3         1 AHS      -0.094400
      4 CG          -3.6940     0.4130    -0.1330 c6         1 AHS      -0.061700
      5 CD1         -3.9150    -0.7700     0.8570 c6         1 AHS      -0.072900
      6 CD2         -4.8200     0.4300    -1.2060 c6         1 AHS      -0.072900
      7 CE1         -5.3250    -0.7240     1.4980 c6         1 AHS      -0.072900
      8 CE2         -6.2270     0.4790    -0.5610 c6         1 AHS      -0.072900
      9 CZ          -6.4340    -0.6990     0.4200 c6         1 AHS      -0.073400
     10 CH           0.2950     0.3090    -0.6640 c3         1 AHS       0.126100
     11 OH           0.5490     1.5730    -1.2950 oh         1 AHS      -0.596800
     12 CM           1.4800    -0.0780     0.2690 c3         1 AHS       0.120000
     13 N1           2.7490    -0.3920    -0.4400 n          1 AHS      -0.535800
     14 CB2          3.7470     0.7010    -0.5710 c3         1 AHS       0.132000
     15 CG2          4.5450     1.0110     0.7260 c3         1 AHS      -0.085700
     16 CD3          5.3640    -0.2000     1.2310 c3         1 AHS      -0.076600
     17 CD4          5.4490     2.2490     0.5320 c3         1 AHS      -0.076600
     18 C            3.0040    -1.6900    -0.9210 c          1 AHS       1.024600
     19 O            4.0600    -1.9170    -1.4930 o          1 AHS      -0.852300
     20 OXT          2.1410    -2.5440    -0.7830 o          1 AHS      -0.852300
     21 H           -2.0030     1.8550     1.2780 hn         1 AHS       0.337800
     22 H2          -0.4540     1.6520     1.6910 hn         1 AHS       0.337800
     23 HA          -1.1130    -0.3720     0.8390 h1         1 AHS       0.040700
     24 HB2         -2.2200     1.1900    -1.5460 hc         1 AHS       0.056700
     25 HB3         -2.2070    -0.5510    -1.4020 hc         1 AHS       0.056700
     26 HG          -3.7520     1.3550     0.4300 hc         1 AHS       0.030700
     27 HD12        -3.7810    -1.7260     0.3320 hc         1 AHS       0.042200
     28 HD13        -3.1650    -0.7450     1.6580 hc         1 AHS       0.042200
     29 HD23        -4.6940     1.2970    -1.8690 hc         1 AHS       0.042200
     30 HD22        -4.7420    -0.4620    -1.8430 hc         1 AHS       0.042200
     31 HE12        -5.4640    -1.5930     2.1540 hc         1 AHS       0.031700
     32 HE13        -5.4110     0.1660     2.1370 hc         1 AHS       0.031700
     33 HE23        -6.3570     1.4320    -0.0280 hc         1 AHS       0.031700
     34 HE22        -6.9970     0.4520    -1.3440 hc         1 AHS       0.031700
     35 HZ2         -6.4330    -1.6480    -0.1350 hc         1 AHS       0.033200
     36 HZ3         -7.4190    -0.6180     0.8990 hc         1 AHS       0.033200
     37 HH           0.1860    -0.4900    -1.4110 h1         1 AHS       0.097700
     38 HO           0.0490     2.1970    -0.7180 ho         1 AHS       0.400000
     39 HM1          1.6580     0.7480     0.9700 h1         1 AHS       0.018700
     40 HM2          1.1880    -0.9410     0.8810 h1         1 AHS       0.018700
     41 HB21         4.4510     0.4810    -1.3830 h1         1 AHS       0.034200
     42 HB22         3.2120     1.6120    -0.8700 h1         1 AHS       0.034200
     43 HG2          3.8250     1.2660     1.5120 hc         1 AHS       0.022700
     44 HD31         5.9100     0.0570     2.1460 hc         1 AHS       0.022533
     45 HD32         4.7080    -1.0480     1.4620 hc         1 AHS       0.022533
     46 HD33         6.0920    -0.5210     0.4760 hc         1 AHS       0.022533
     47 HD41         4.8540     3.1200     0.2300 hc         1 AHS       0.022533
     48 HD42         5.9670     2.5020     1.4650 hc         1 AHS       0.022533
     49 HD43         6.2040     2.0640    -0.2420 hc         1 AHS       0.022533
@<TRIPOS>BOND
     1     1     2 1   
     2     1    21 1   
     3     1    22 1   
     4     2     3 1   
     5     2    10 1   
     6     2    23 1   
     7     3     4 1   
     8     3    24 1   
     9     3    25 1   
    10     4     5 1   
    11     4     6 1   
    12     4    26 1   
    13     5     7 1   
    14     5    27 1   
    15     5    28 1   
    16     6     8 1   
    17     6    29 1   
    18     6    30 1   
    19     7     9 1   
    20     7    31 1   
    21     7    32 1   
    22     8     9 1   
    23     8    33 1   
    24     8    34 1   
    25     9    35 1   
    26     9    36 1   
    27    10    11 1   
    28    10    12 1   
    29    10    37 1   
    30    11    38 1   
    31    12    13 1   
    32    12    39 1   
    33    12    40 1   
    34    13    14 1   
    35    13    18 1   
    36    14    15 1   
    37    14    41 1   
    38    14    42 1   
    39    15    16 1   
    40    15    17 1   
    41    15    43 1   
    42    16    44 1   
    43    16    45 1   
    44    16    46 1   
    45    17    47 1   
    46    17    48 1   
    47    17    49 1   
    48    18    19 1   
    49    18    20 1   
@<TRIPOS>SUBSTRUCTURE
     1 AHS         1 TEMP              0 ****  ****    0 ROOT
