@<TRIPOS>MOLECULE
AHT
   33    33     1     0     0
SMALL
bcc


@<TRIPOS>ATOM
      1 N           -0.5060     1.6820    -0.2070 n8         1 AHT      -0.881800
      2 CA          -0.7430     0.2790     0.0940 c3         1 AHT       0.161500
      3 C           -2.1680    -0.0560     0.5500 c3         1 AHT      -0.115400
      4 CB           0.2660    -0.1930     1.1490 c3         1 AHT      -0.015100
      5 CG           1.6890    -0.1740     0.6710 ca         1 AHT      -0.105300
      6 CD1          2.4770     0.9720     0.7580 ca         1 AHT      -0.077000
      7 CD2          2.2610    -1.3030     0.0930 ca         1 AHT      -0.077000
      8 CE1          3.7820     0.9940     0.2940 ca         1 AHT      -0.195000
      9 CE2          3.5660    -1.3010    -0.3810 ca         1 AHT      -0.195000
     10 CZ           4.3370    -0.1470    -0.2830 ca         1 AHT       0.135100
     11 OH           5.6140    -0.0790    -0.7190 oh         1 AHT      -0.497100
     12 C1          -3.2420     0.3730    -0.4390 c3         1 AHT      -0.108400
     13 C2          -4.6560    -0.0190    -0.0250 c3         1 AHT       0.356300
     14 O2          -4.7740    -1.4180     0.1900 oh         1 AHT      -0.623800
     15 N2          -5.6000     0.5280    -0.9600 n8         1 AHT      -0.922800
     16 H           -1.0970     1.9800    -0.9730 hn         1 AHT       0.337800
     17 H2          -0.7770     2.2490     0.5890 hn         1 AHT       0.337800
     18 HA          -0.5470    -0.2810    -0.8290 h1         1 AHT       0.059700
     19 HC1         -2.2340    -1.1350     0.7190 hc         1 AHT       0.050700
     20 HC2         -2.3580     0.4180     1.5220 hc         1 AHT       0.050700
     21 HB2          0.1580     0.4360     2.0390 hc         1 AHT       0.044700
     22 HB3         -0.0020    -1.2080     1.4550 hc         1 AHT       0.044700
     23 HD1          2.0660     1.8690     1.2040 ha         1 AHT       0.129000
     24 HD2          1.6790    -2.2150     0.0150 ha         1 AHT       0.129000
     25 HE1          4.3780     1.8950     0.3770 ha         1 AHT       0.135500
     26 HE2          3.9810    -2.2010    -0.8210 ha         1 AHT       0.135500
     27 HH           5.8940    -0.9320    -1.0680 ho         1 AHT       0.423000
     28 H11         -3.2230     1.4580    -0.5650 hc         1 AHT       0.047700
     29 H12         -3.0280    -0.0550    -1.4290 hc         1 AHT       0.047700
     30 HC22        -4.8740     0.4190     0.9540 h2         1 AHT       0.088700
     31 HO2         -4.4740    -1.8720    -0.6060 ho         1 AHT       0.395000
     32 HN21        -5.4220     0.1900    -1.8990 hn         1 AHT       0.351800
     33 HN22        -6.5440     0.2520    -0.7210 hn         1 AHT       0.351800
@<TRIPOS>BOND
     1     1     2 1   
     2     1    16 1   
     3     1    17 1   
     4     2     3 1   
     5     2     4 1   
     6     2    18 1   
     7     3    12 1   
     8     3    19 1   
     9     3    20 1   
    10     4     5 1   
    11     4    21 1   
    12     4    22 1   
    13     5     6 ar  
    14     5     7 ar  
    15     6     8 ar  
    16     6    23 1   
    17     7     9 ar  
    18     7    24 1   
    19     8    10 ar  
    20     8    25 1   
    21     9    10 ar  
    22     9    26 1   
    23    10    11 1   
    24    11    27 1   
    25    12    13 1   
    26    12    28 1   
    27    12    29 1   
    28    13    14 1   
    29    13    15 1   
    30    13    30 1   
    31    14    31 1   
    32    15    32 1   
    33    15    33 1   
@<TRIPOS>SUBSTRUCTURE
     1 AHT         1 TEMP              0 ****  ****    0 ROOT
