@<TRIPOS>MOLECULE
AHT
   33    33     1     0     0
SMALL
No Charge or Current Charge


@<TRIPOS>ATOM
      1 N           -0.5200     1.6250    -0.4160 n8         1 AHT      -0.881800
      2 CA          -0.7420     0.2500     0.0720 c3         1 AHT       0.161500
      3 C           -2.2010     0.0850     0.5680 c3         1 AHT      -0.115400
      4 CB           0.2920    -0.1260     1.1680 c3         1 AHT      -0.015100
      5 CG           1.7390    -0.1260     0.6760 ca         1 AHT      -0.105300
      6 CD1          2.6380     0.8760     1.0960 ca         1 AHT      -0.077000
      7 CD2          2.1910    -1.1420    -0.1910 ca         1 AHT      -0.077000
      8 CE1          3.9710     0.8620     0.6480 ca         1 AHT      -0.195000
      9 CE2          3.5260    -1.1520    -0.6370 ca         1 AHT      -0.195000
     10 CZ           4.4130    -0.1490    -0.2170 ca         1 AHT       0.135100
     11 OH           5.7060    -0.1530    -0.6450 oh         1 AHT      -0.497100
     12 C1          -3.2850     0.2970    -0.5260 c3         1 AHT      -0.108400
     13 C2          -4.7300     0.0910    -0.0190 c3         1 AHT       0.356300
     14 O2          -4.9570    -1.2560     0.3110 oh         1 AHT      -0.623800
     15 N2          -5.6940     0.3280    -1.0640 n8         1 AHT      -0.922800
     16 H           -1.2550     1.8590    -1.0890 hn         1 AHT       0.337800
     17 H2          -0.6670     2.2790     0.3580 hn         1 AHT       0.337800
     18 HA          -0.5970    -0.4340    -0.7770 h1         1 AHT       0.059700
     19 HC1         -2.3120    -0.9250     0.9810 hc         1 AHT       0.050700
     20 HC2         -2.3850     0.7790     1.3980 hc         1 AHT       0.050700
     21 HB2          0.1760     0.5550     2.0200 hc         1 AHT       0.044700
     22 HB3          0.0500    -1.1250     1.5510 hc         1 AHT       0.044700
     23 HD1          2.3030     1.6650     1.7660 ha         1 AHT       0.129000
     24 HD2          1.5090    -1.9240    -0.5170 ha         1 AHT       0.129000
     25 HE1          4.6610     1.6380     0.9720 ha         1 AHT       0.135500
     26 HE2          3.8610    -1.9410    -1.3060 ha         1 AHT       0.135500
     27 HH           5.8330    -0.9250    -1.2350 ho         1 AHT       0.423000
     28 H11         -3.2060     1.3190    -0.9160 hc         1 AHT       0.047700
     29 H12         -3.0870    -0.3770    -1.3690 hc         1 AHT       0.047700
     30 HC22        -4.9360     0.7320     0.8540 h2         1 AHT       0.088700
     31 HO2         -4.3240    -1.7760    -0.2220 ho         1 AHT       0.395000
     32 HN21        -5.4920    -0.3160    -1.8310 hn         1 AHT       0.351800
     33 HN22        -6.6000     0.0120    -0.7120 hn         1 AHT       0.351800
@<TRIPOS>BOND
     1     1     2 1   
     2     1    16 1   
     3     1    17 1   
     4     2     3 1   
     5     2     4 1   
     6     2    18 1   
     7     3    12 1   
     8     3    19 1   
     9     3    20 1   
    10     4     5 1   
    11     4    21 1   
    12     4    22 1   
    13     5     6 ar  
    14     5     7 ar  
    15     6     8 ar  
    16     6    23 1   
    17     7     9 ar  
    18     7    24 1   
    19     8    10 ar  
    20     8    25 1   
    21     9    10 ar  
    22     9    26 1   
    23    10    11 1   
    24    11    27 1   
    25    12    13 1   
    26    12    28 1   
    27    12    29 1   
    28    13    14 1   
    29    13    15 1   
    30    13    30 1   
    31    14    31 1   
    32    15    32 1   
    33    15    33 1   
@<TRIPOS>SUBSTRUCTURE
     1 AHT         1 TEMP              0 ****  ****    0 ROOT
