@<TRIPOS>MOLECULE
AHU
   31    32     1     0     0
SMALL
No Charge or Current Charge


@<TRIPOS>ATOM
      1 C4           1.4300     0.0900     3.3210 c6         1 AHU       0.127300
      2 C7           2.8110    -0.6380     3.2130 c3         1 AHU       0.170600
      3 O7           3.9360     0.2610     3.2770 oh         1 AHU      -0.704000
      4 O5           1.3600     1.0970     2.2780 os         1 AHU      -0.443000
      5 C6           0.1680     1.9170     2.3160 c6         1 AHU       0.138600
      6 C1          -1.1370     1.0650     2.1920 c6         1 AHU       0.079700
      7 C2          -1.1050    -0.0990     3.2250 c6         1 AHU      -0.095400
      8 C3           0.2250    -0.8950     3.1840 c6         1 AHU       0.141300
      9 O3           0.2300    -1.8740     4.2350 oh         1 AHU      -0.710000
     10 N1          -1.4600     0.5680     0.8090 n          1 AHU      -0.306000
     11 C9          -0.4680     0.1390    -0.0890 cc         1 AHU       0.042600
     12 C10         -2.8230     0.5110     0.4240 c          1 AHU       0.613000
     13 O2          -3.7410     0.8460     1.1550 o          1 AHU      -0.550000
     14 N3          -3.0850     0.0530    -0.8270 ns         1 AHU      -0.466500
     15 C8          -2.2100    -0.3740    -1.7730 c          1 AHU       0.601200
     16 O4          -2.5910    -0.7620    -2.8660 o          1 AHU      -0.505000
     17 C5          -0.7960    -0.3200    -1.3440 cd         1 AHU      -0.192400
     18 I            0.6590    -0.9810    -2.7440 i          1 AHU      -0.092800
     19 H4           1.3820     0.5890     4.3000 h1         1 AHU       0.066700
     20 H7'1         2.8300    -1.1950     2.2670 h1         1 AHU       0.025200
     21 H7'2         2.8790    -1.3740     4.0250 h1         1 AHU       0.025200
     22 HO'7         4.7460    -0.2830     3.1370 ho         1 AHU       0.507000
     23 H6'1         0.1540     2.4720     3.2650 h1         1 AHU       0.068200
     24 H6'2         0.2110     2.6550     1.5020 h1         1 AHU       0.068200
     25 H1          -1.9480     1.7420     2.4980 h1         1 AHU       0.097700
     26 H2'1        -1.2370     0.3220     4.2320 hc         1 AHU       0.078200
     27 H2'2        -1.9590    -0.7690     3.0610 hc         1 AHU       0.078200
     28 H3           0.3030    -1.3990     2.2090 h1         1 AHU       0.040700
     29 HO'3        -0.4620    -2.5410     4.0140 ho         1 AHU       0.509000
     30 H6           0.5450     0.1950     0.2850 h4         1 AHU       0.239000
     31 HN3         -4.0580     0.0240    -1.0850 hn         1 AHU       0.345500
@<TRIPOS>BOND
     1     1     2 1   
     2     1     4 1   
     3     1     8 1   
     4     1    19 1   
     5     2     3 1   
     6     2    20 1   
     7     2    21 1   
     8     3    22 1   
     9     4     5 1   
    10     5     6 1   
    11     5    23 1   
    12     5    24 1   
    13     6     7 1   
    14     6    10 1   
    15     6    25 1   
    16     7     8 1   
    17     7    26 1   
    18     7    27 1   
    19     8     9 1   
    20     8    28 1   
    21     9    29 1   
    22    10    11 1   
    23    10    12 1   
    24    11    17 2   
    25    11    30 1   
    26    12    13 2   
    27    12    14 1   
    28    14    15 1   
    29    14    31 1   
    30    15    16 2   
    31    15    17 1   
    32    17    18 1   
@<TRIPOS>SUBSTRUCTURE
     1 AHU         1 TEMP              0 ****  ****    0 ROOT
