@<TRIPOS>MOLECULE
AHU
   31    32     1     0     0
SMALL
bcc


@<TRIPOS>ATOM
      1 C4           1.3490     0.0400     3.2570 c6         1 AHU       0.104100
      2 C7           2.6330    -0.7480     3.1200 c3         1 AHU       0.147400
      3 O7           3.7270     0.1220     3.2780 oh         1 AHU      -0.581800
      4 O5           1.3190     0.9840     2.2020 os         1 AHU      -0.396600
      5 C6           0.2050     1.8440     2.2390 c6         1 AHU       0.115400
      6 C1          -1.1230     1.1060     2.1720 c6         1 AHU       0.079700
      7 C2          -1.1490     0.0030     3.2270 c6         1 AHU      -0.095400
      8 C3           0.1050    -0.8600     3.1960 c6         1 AHU       0.118100
      9 O3           0.0410    -1.7310     4.3020 oh         1 AHU      -0.587800
     10 N1          -1.4420     0.5930     0.8240 n          1 AHU      -0.373000
     11 C9          -0.4810     0.2370    -0.0720 cc         1 AHU       0.092600
     12 C10         -2.7820     0.4640     0.5070 c          1 AHU       0.822500
     13 O2          -3.6730     0.7480     1.2780 o          1 AHU      -0.625500
     14 N3          -3.0350    -0.0060    -0.7550 ns         1 AHU      -0.600500
     15 C8          -2.1330    -0.3760    -1.7350 c          1 AHU       0.743700
     16 O4          -2.5080    -0.7770    -2.8170 o          1 AHU      -0.580500
     17 C5          -0.7600    -0.2290    -1.3050 cd         1 AHU      -0.192400
     18 I            0.7400    -0.7570    -2.6440 i          1 AHU      -0.092800
     19 H4           1.3420     0.5650     4.2270 h1         1 AHU       0.066700
     20 H7'1         2.6420    -1.2460     2.1400 h1         1 AHU       0.025200
     21 H7'2         2.6410    -1.5380     3.8810 h1         1 AHU       0.025200
     22 HO'7         4.5320    -0.3970     3.2070 ho         1 AHU       0.408000
     23 H6'1         0.1960     2.4280     3.1680 h1         1 AHU       0.068200
     24 H6'2         0.3120     2.5490     1.4130 h1         1 AHU       0.068200
     25 H1          -1.8960     1.8370     2.4010 h1         1 AHU       0.097700
     26 H2'1        -1.2120     0.4890     4.2060 hc         1 AHU       0.078200
     27 H2'2        -2.0390    -0.6180     3.1220 hc         1 AHU       0.078200
     28 H3           0.1330    -1.4330     2.2570 h1         1 AHU       0.040700
     29 HO'3         0.5840    -2.5040     4.1270 ho         1 AHU       0.410000
     30 H6           0.5390     0.3440     0.2660 h4         1 AHU       0.189000
     31 HN3         -4.0170    -0.0920    -0.9930 hn         1 AHU       0.345500
@<TRIPOS>BOND
     1     1     2 1   
     2     1     4 1   
     3     1     8 1   
     4     1    19 1   
     5     2     3 1   
     6     2    20 1   
     7     2    21 1   
     8     3    22 1   
     9     4     5 1   
    10     5     6 1   
    11     5    23 1   
    12     5    24 1   
    13     6     7 1   
    14     6    10 1   
    15     6    25 1   
    16     7     8 1   
    17     7    26 1   
    18     7    27 1   
    19     8     9 1   
    20     8    28 1   
    21     9    29 1   
    22    10    11 1   
    23    10    12 1   
    24    11    17 2   
    25    11    30 1   
    26    12    13 2   
    27    12    14 1   
    28    14    15 1   
    29    14    31 1   
    30    15    16 2   
    31    15    17 1   
    32    17    18 1   
@<TRIPOS>SUBSTRUCTURE
     1 AHU         1 TEMP              0 ****  ****    0 ROOT
