@<TRIPOS>MOLECULE
AHW
   28    29     1     0     0
SMALL
bcc


@<TRIPOS>ATOM
      1 C1          -4.5260    -1.0140    -0.8880 c3         1 AHW      -0.086100
      2 C10         -2.4120     1.2170     0.1100 ca         1 AHW      -0.133000
      3 C7          -3.8040    -0.8650     0.4500 c3         1 AHW      -0.033100
      4 C9          -2.4700    -0.1880     0.3060 ca         1 AHW      -0.064300
      5 C11         -1.2160     1.8550    -0.0530 ca         1 AHW      -0.104000
      6 C12         -0.0010     1.1310    -0.0330 ca         1 AHW      -0.072000
      7 C13         -0.0410    -0.2740     0.1620 ca         1 AHW       0.005000
      8 C14         -1.3010    -0.9020     0.3280 ca         1 AHW      -0.125000
      9 C15          1.1630    -1.0040     0.1890 ca         1 AHW      -0.169000
     10 C16          2.3760    -0.3720     0.0300 ca         1 AHW       0.140100
     11 C17          2.4190     1.0280    -0.1680 ca         1 AHW      -0.198000
     12 C20          1.2550     1.7500    -0.1950 ca         1 AHW      -0.079000
     13 C22          4.7470    -0.5430    -0.0850 c3         1 AHW       0.127700
     14 O21          3.4780    -1.1460     0.0760 os         1 AHW      -0.320900
     15 H1          -5.4890    -1.5080    -0.7550 hc         1 AHW       0.035033
     16 H2          -4.7110    -0.0440    -1.3500 hc         1 AHW       0.035033
     17 H3          -3.9360    -1.6090    -1.5870 hc         1 AHW       0.035033
     18 H4          -3.3330     1.7890     0.0950 ha         1 AHW       0.129000
     19 H5          -4.4330    -0.2890     1.1340 hc         1 AHW       0.045700
     20 H6          -3.6690    -1.8490     0.9030 hc         1 AHW       0.045700
     21 H7          -1.1850     2.9290    -0.1950 ha         1 AHW       0.129000
     22 H8          -1.3310    -1.9770     0.4750 ha         1 AHW       0.131000
     23 H9           1.1320    -2.0770     0.3380 ha         1 AHW       0.145000
     24 H10          3.3590     1.5450    -0.3010 ha         1 AHW       0.134000
     25 H11          1.2990     2.8230    -0.3430 ha         1 AHW       0.130000
     26 H12          5.4790    -1.3420    -0.0020 h1         1 AHW       0.039700
     27 H13          4.8540    -0.0690    -1.0640 h1         1 AHW       0.039700
     28 H14          4.9500     0.1990     0.6910 h1         1 AHW       0.039700
@<TRIPOS>BOND
     1     1     3 1   
     2     1    15 1   
     3     1    16 1   
     4     1    17 1   
     5     2     4 ar  
     6     2     5 ar  
     7     2    18 1   
     8     3     4 1   
     9     3    19 1   
    10     3    20 1   
    11     4     8 ar  
    12     5     6 ar  
    13     5    21 1   
    14     6     7 ar  
    15     6    12 ar  
    16     7     8 ar  
    17     7     9 ar  
    18     8    22 1   
    19     9    10 ar  
    20     9    23 1   
    21    10    11 ar  
    22    10    14 1   
    23    11    12 ar  
    24    11    24 1   
    25    12    25 1   
    26    13    14 1   
    27    13    26 1   
    28    13    27 1   
    29    13    28 1   
@<TRIPOS>SUBSTRUCTURE
     1 AHW         1 TEMP              0 ****  ****    0 ROOT
