@<TRIPOS>MOLECULE
AHW
   28    29     1     0     0
SMALL
No Charge or Current Charge


@<TRIPOS>ATOM
      1 C1          -4.4430    -1.2200    -0.9090 c3         1 AHW      -0.086100
      2 C10         -2.4410     1.3130     0.1730 ca         1 AHW      -0.115000
      3 C7          -3.8700    -0.7720     0.4480 c3         1 AHW      -0.033100
      4 C9          -2.5180    -0.0870     0.3030 ca         1 AHW      -0.064300
      5 C11         -1.1940     1.9460     0.0350 ca         1 AHW      -0.086000
      6 C12         -0.0120     1.1830     0.0220 ca         1 AHW      -0.072000
      7 C13         -0.0830    -0.2210     0.1490 ca         1 AHW       0.005000
      8 C14         -1.3340    -0.8500     0.2880 ca         1 AHW      -0.107000
      9 C15          1.0980    -0.9850     0.1360 ca         1 AHW      -0.151000
     10 C16          2.3490    -0.3610    -0.0030 ca         1 AHW       0.140100
     11 C17          2.4180     1.0430    -0.1290 ca         1 AHW      -0.180000
     12 C20          1.2390     1.8110    -0.1170 ca         1 AHW      -0.061000
     13 C22          4.7990    -0.6260    -0.1450 c3         1 AHW       0.150900
     14 O21          3.4710    -1.1640    -0.0090 os         1 AHW      -0.344100
     15 H1          -5.4160    -1.7090    -0.7730 hc         1 AHW       0.035033
     16 H2          -4.5800    -0.3590    -1.5740 hc         1 AHW       0.035033
     17 H3          -3.7670    -1.9310    -1.3990 hc         1 AHW       0.035033
     18 H4          -3.3490     1.9120     0.1790 ha         1 AHW       0.111000
     19 H5          -4.5880    -0.0990     0.9330 hc         1 AHW       0.045700
     20 H6          -3.7820    -1.6470     1.1040 hc         1 AHW       0.045700
     21 H7          -1.1490     3.0290    -0.0640 ha         1 AHW       0.111000
     22 H8          -1.3890    -1.9320     0.3840 ha         1 AHW       0.113000
     23 H9           1.0500    -2.0660     0.2330 ha         1 AHW       0.127000
     24 H10          3.3700     1.5550    -0.2380 ha         1 AHW       0.116000
     25 H11          1.3010     2.8930    -0.2150 ha         1 AHW       0.112000
     26 H12          5.5400    -1.4340    -0.1250 h1         1 AHW       0.039700
     27 H13          4.9060    -0.0900    -1.0970 h1         1 AHW       0.039700
     28 H14          5.0260     0.0640     0.6770 h1         1 AHW       0.039700
@<TRIPOS>BOND
     1     1     3 1   
     2     1    15 1   
     3     1    16 1   
     4     1    17 1   
     5     2     4 ar  
     6     2     5 ar  
     7     2    18 1   
     8     3     4 1   
     9     3    19 1   
    10     3    20 1   
    11     4     8 ar  
    12     5     6 ar  
    13     5    21 1   
    14     6     7 ar  
    15     6    12 ar  
    16     7     8 ar  
    17     7     9 ar  
    18     8    22 1   
    19     9    10 ar  
    20     9    23 1   
    21    10    11 ar  
    22    10    14 1   
    23    11    12 ar  
    24    11    24 1   
    25    12    25 1   
    26    13    14 1   
    27    13    26 1   
    28    13    27 1   
    29    13    28 1   
@<TRIPOS>SUBSTRUCTURE
     1 AHW         1 TEMP              0 ****  ****    0 ROOT
