@<TRIPOS>MOLECULE
AHY
   34    33     1     0     0
SMALL
abcg2


@<TRIPOS>ATOM
      1 C10          7.8790     9.4690    -1.4410 c3         1 AHY      -0.087100
      2 C9           8.7180     8.2320    -1.1570 c3         1 AHY      -0.075400
      3 C8           7.9930     7.2140    -0.2840 c3         1 AHY      -0.076400
      4 C7           8.8230     5.9710     0.0100 c3         1 AHY      -0.075400
      5 C6           8.1010     4.9610     0.8930 c3         1 AHY      -0.075400
      6 C5           8.9310     3.7150     1.1810 c3         1 AHY      -0.076400
      7 C4           8.2190     2.7310     2.1020 c3         1 AHY      -0.104400
      8 C3           8.9840     1.4280     2.3170 c3         1 AHY       0.128500
      9 N3          10.3580     1.5950     2.7910 n8         1 AHY      -1.027200
     10 C2           8.2870     0.4800     3.3140 c3         1 AHY       0.045300
     11 OH2          9.1320    -0.6160     3.5620 oh         1 AHY      -0.652000
     12 C1           6.9250     0.0070     2.7720 c          1 AHY       0.718000
     13 O            6.9280    -0.9840     2.0200 o          1 AHY      -0.726500
     14 OXT          5.9330     0.6850     3.1140 o          1 AHY      -0.726500
     15 H101         6.9570     9.2080    -1.9650 hc         1 AHY       0.027367
     16 H102         7.5970     9.9750    -0.5150 hc         1 AHY       0.027367
     17 H103         8.4170    10.1890    -2.0600 hc         1 AHY       0.027367
     18 H9C1         9.0070     7.7580    -2.1000 hc         1 AHY       0.033700
     19 H9C2         9.6530     8.5240    -0.6670 hc         1 AHY       0.033700
     20 H8C1         7.7030     7.6890     0.6600 hc         1 AHY       0.037200
     21 H8C2         7.0580     6.9210    -0.7730 hc         1 AHY       0.037200
     22 H7C1         9.7620     6.2650     0.4920 hc         1 AHY       0.031200
     23 H7C2         9.1060     5.4910    -0.9340 hc         1 AHY       0.031200
     24 H6C1         7.1590     4.6700     0.4160 hc         1 AHY       0.040700
     25 H6C2         7.8250     5.4390     1.8400 hc         1 AHY       0.040700
     26 H5C1         9.8840     4.0180     1.6260 hc         1 AHY       0.022700
     27 H5C2         9.1800     3.2200     0.2350 hc         1 AHY       0.022700
     28 H4C1         8.0320     3.2100     3.0700 hc         1 AHY       0.063200
     29 H4C2         7.2350     2.5020     1.6850 hc         1 AHY       0.063200
     30 H3           9.0520     0.9000     1.3580 h1         1 AHY       0.068700
     31 H3N1        10.3970     2.2900     3.5290 hn         1 AHY       0.380500
     32 H3N2        10.9590     1.9270     2.0480 hn         1 AHY       0.380500
     33 H2O         10.0240    -0.2310     3.5010 ho         1 AHY       0.430000
     34 H2           8.1100     1.0520     4.2410 h1         1 AHY       0.006700
@<TRIPOS>BOND
     1     1     2 1   
     2     1    15 1   
     3     1    16 1   
     4     1    17 1   
     5     2     3 1   
     6     2    18 1   
     7     2    19 1   
     8     3     4 1   
     9     3    20 1   
    10     3    21 1   
    11     4     5 1   
    12     4    22 1   
    13     4    23 1   
    14     5     6 1   
    15     5    24 1   
    16     5    25 1   
    17     6     7 1   
    18     6    26 1   
    19     6    27 1   
    20     7     8 1   
    21     7    28 1   
    22     7    29 1   
    23     8     9 1   
    24     8    10 1   
    25     8    30 1   
    26     9    31 1   
    27     9    32 1   
    28    10    11 1   
    29    10    12 1   
    30    10    34 1   
    31    11    33 1   
    32    12    13 1   
    33    12    14 1   
@<TRIPOS>SUBSTRUCTURE
     1 AHY         1 TEMP              0 ****  ****    0 ROOT
