@<TRIPOS>MOLECULE
AHY
   34    33     1     0     0
SMALL
No Charge or Current Charge


@<TRIPOS>ATOM
      1 C10          7.9060     9.5330    -1.4950 c3         1 AHY      -0.087100
      2 C9           8.6910     8.2240    -1.2840 c3         1 AHY      -0.075400
      3 C8           8.0240     7.2750    -0.2650 c3         1 AHY      -0.076400
      4 C7           8.8110     5.9630    -0.0540 c3         1 AHY      -0.075400
      5 C6           8.1440     5.0140     0.9660 c3         1 AHY      -0.075400
      6 C5           8.9310     3.7020     1.1760 c3         1 AHY      -0.076400
      7 C4           8.2580     2.7520     2.1980 c3         1 AHY      -0.104400
      8 C3           8.9830     1.3950     2.3840 c3         1 AHY       0.128500
      9 N3          10.3610     1.5930     2.9200 n8         1 AHY      -1.027200
     10 C2           8.2000     0.4140     3.3060 c3         1 AHY       0.045300
     11 OH2          9.1680    -0.5540     3.7680 oh         1 AHY      -0.652000
     12 C1           6.9340    -0.2150     2.6060 c          1 AHY       0.718000
     13 O            7.0340    -0.6500     1.4640 o          1 AHY      -0.726500
     14 OXT          5.8830    -0.2460     3.2360 o          1 AHY      -0.726500
     15 H101         6.8970     9.3240    -1.8690 hc         1 AHY       0.027367
     16 H102         7.8190    10.0880    -0.5530 hc         1 AHY       0.027367
     17 H103         8.4170    10.1710    -2.2240 hc         1 AHY       0.027367
     18 H9C1         8.7910     7.7090    -2.2480 hc         1 AHY       0.033700
     19 H9C2         9.7050     8.4680    -0.9440 hc         1 AHY       0.033700
     20 H8C1         7.9230     7.7930     0.6970 hc         1 AHY       0.037200
     21 H8C2         7.0090     7.0350    -0.6070 hc         1 AHY       0.037200
     22 H7C1         9.8260     6.2030     0.2880 hc         1 AHY       0.031200
     23 H7C2         8.9110     5.4450    -1.0160 hc         1 AHY       0.031200
     24 H6C1         7.1290     4.7750     0.6240 hc         1 AHY       0.040700
     25 H6C2         8.0440     5.5320     1.9280 hc         1 AHY       0.040700
     26 H5C1         9.9450     3.9490     1.5130 hc         1 AHY       0.022700
     27 H5C2         9.0280     3.1830     0.2140 hc         1 AHY       0.022700
     28 H4C1         8.1780     3.2590     3.1680 hc         1 AHY       0.063200
     29 H4C2         7.2320     2.5570     1.8640 hc         1 AHY       0.063200
     30 H3           9.0810     0.9210     1.3960 h1         1 AHY       0.068700
     31 H3N1        10.3110     2.2300     3.7240 hn         1 AHY       0.380500
     32 H3N2        10.9020     2.1310     2.2330 hn         1 AHY       0.380500
     33 H2O         10.0090    -0.0550     3.5930 ho         1 AHY       0.430000
     34 H2           7.8440     0.9860     4.1740 h1         1 AHY       0.006700
@<TRIPOS>BOND
     1     1     2 1   
     2     1    15 1   
     3     1    16 1   
     4     1    17 1   
     5     2     3 1   
     6     2    18 1   
     7     2    19 1   
     8     3     4 1   
     9     3    20 1   
    10     3    21 1   
    11     4     5 1   
    12     4    22 1   
    13     4    23 1   
    14     5     6 1   
    15     5    24 1   
    16     5    25 1   
    17     6     7 1   
    18     6    26 1   
    19     6    27 1   
    20     7     8 1   
    21     7    28 1   
    22     7    29 1   
    23     8     9 1   
    24     8    10 1   
    25     8    30 1   
    26     9    31 1   
    27     9    32 1   
    28    10    11 1   
    29    10    12 1   
    30    10    34 1   
    31    11    33 1   
    32    12    13 1   
    33    12    14 1   
@<TRIPOS>SUBSTRUCTURE
     1 AHY         1 TEMP              0 ****  ****    0 ROOT
