@<TRIPOS>MOLECULE
AHZ
   57    60     1     0     0
SMALL
abcg2


@<TRIPOS>ATOM
      1 O2          56.3920    25.0170    37.8290 oh         1 AHZ      -0.691000
      2 C2          55.4900    23.9650    37.5780 c5         1 AHZ       0.133300
      3 C3          54.2110    24.4240    36.8860 c5         1 AHZ       0.147300
      4 O3          53.7840    25.6390    37.4920 oh         1 AHZ      -0.732000
      5 C1          54.9390    23.3020    38.8510 c5         1 AHZ       0.269300
      6 N9          55.7930    22.2730    39.4010 na         1 AHZ      -0.288300
      7 C8          56.2970    21.1650    38.7490 cc         1 AHZ       0.450700
      8 N7          56.9960    20.3810    39.5300 nd         1 AHZ      -0.577100
      9 C5          56.9520    20.9930    40.7720 ca         1 AHZ      -0.089600
     10 C6          57.4950    20.6500    42.0250 ca         1 AHZ       0.434900
     11 N1          57.2510    21.4710    43.0660 nb         1 AHZ      -0.322000
     12 C9          56.5120    22.5680    42.8660 ca         1 AHZ       0.150900
     13 N6          58.2380    19.5510    42.2200 nv         1 AHZ      -1.082900
     14 C4          56.2030    22.1660    40.7130 ca         1 AHZ       0.127500
     15 N3          55.9530    22.9920    41.7340 nb         1 AHZ      -0.202000
     16 O4          53.6880    22.7400    38.4810 os         1 AHZ      -0.464000
     17 C11         53.2650    23.2620    37.2000 c5         1 AHZ       0.113300
     18 C10         53.2990    22.1340    36.1790 c3         1 AHZ       0.215600
     19 O5          52.6290    22.5710    34.9990 os         1 AHZ      -0.599400
     20 PA          53.2250    22.1770    33.5370 p5         1 AHZ       1.480800
     21 O2A         52.1910    22.5950    32.5490 o          1 AHZ      -0.855500
     22 O1A         54.6330    22.6650    33.4130 o          1 AHZ      -0.855500
     23 O3A         53.3430    20.5560    33.6370 os         1 AHZ      -0.739800
     24 PB          52.2550    19.3420    33.7670 p5         1 AHZ       1.488800
     25 O1B         51.0590    19.7650    34.5490 o          1 AHZ      -0.866000
     26 O2B         53.0570    18.1510    34.1790 o          1 AHZ      -0.866000
     27 O3B         51.7490    19.1720    32.2350 os         1 AHZ      -0.616400
     28 C7T         52.7020    18.9250    31.1940 c3         1 AHZ       0.233600
     29 C6T         52.5510    19.9930    30.1130 c3         1 AHZ      -0.032100
     30 C5T         53.5740    19.8350    29.0340 cc         1 AHZ      -0.224300
     31 S1T         53.3550    18.7420    27.7130 ss         1 AHZ      -0.125400
     32 C2T         54.9200    19.1720    27.0980 cc         1 AHZ       0.398900
     33 C1R         55.4200    18.5310    25.8140 c          1 AHZ       0.628500
     34 O1R         56.5340    18.9020    25.3840 o          1 AHZ      -0.721000
     35 O2R         54.6440    17.6800    25.3120 o          1 AHZ      -0.721000
     36 N3T         55.5410    20.0530    27.8290 nd         1 AHZ      -0.660000
     37 C4T         54.8040    20.4350    28.9280 cd         1 AHZ       0.264300
     38 C1M         55.3830    21.4340    29.8800 c3         1 AHZ      -0.112400
     39 H1          57.2620    24.6370    38.0060 ho         1 AHZ       0.494000
     40 H2          55.9560    23.2030    36.9490 h1         1 AHZ       0.073700
     41 H3          54.3490    24.5500    35.8100 h1         1 AHZ       0.117700
     42 H11         52.9550    25.9060    37.0760 ho         1 AHZ       0.504000
     43 H9          54.8130    24.0470    39.6380 h2         1 AHZ       0.098700
     44 H8          56.1040    20.9920    37.7030 h5         1 AHZ       0.102800
     45 H10         56.3490    23.1880    43.7410 h5         1 AHZ       0.029100
     46 HN61        58.4180    18.9120    41.4650 hn         1 AHZ       0.499000
     47 HN62        58.5870    19.3350    43.1390 hn         1 AHZ       0.499000
     48 H4          52.2400    23.6250    37.3020 h1         1 AHZ       0.083700
     49 H5'1        52.7800    21.2650    36.5880 h1         1 AHZ       0.046200
     50 H5'2        54.3290    21.8470    35.9590 h1         1 AHZ       0.046200
     51 H7T1        52.5140    17.9310    30.7830 h1         1 AHZ       0.022200
     52 H7T2        53.7180    18.9410    31.5920 h1         1 AHZ       0.022200
     53 H6T1        52.6530    20.9710    30.5850 hc         1 AHZ       0.067700
     54 H6T2        51.5420    19.9380    29.6990 hc         1 AHZ       0.067700
     55 H1M1        56.3090    21.0530    30.3190 hc         1 AHZ       0.044367
     56 H1M2        55.6250    22.3640    29.3610 hc         1 AHZ       0.044367
     57 H1M3        54.6960    21.6620    30.6920 hc         1 AHZ       0.044367
@<TRIPOS>BOND
     1     1     2 1   
     2     1    39 1   
     3     2     3 1   
     4     2     5 1   
     5     2    40 1   
     6     3     4 1   
     7     3    17 1   
     8     3    41 1   
     9     4    42 1   
    10     5     6 1   
    11     5    16 1   
    12     5    43 1   
    13     6     7 1   
    14     6    14 1   
    15     7     8 2   
    16     7    44 1   
    17     8     9 1   
    18     9    10 ar  
    19     9    14 ar  
    20    10    11 ar  
    21    10    13 1   
    22    11    12 ar  
    23    12    15 ar  
    24    12    45 1   
    25    13    46 1   
    26    13    47 1   
    27    14    15 ar  
    28    16    17 1   
    29    17    18 1   
    30    17    48 1   
    31    18    19 1   
    32    18    49 1   
    33    18    50 1   
    34    19    20 1   
    35    20    21 1   
    36    20    22 1   
    37    20    23 1   
    38    23    24 1   
    39    24    25 1   
    40    24    26 1   
    41    24    27 1   
    42    27    28 1   
    43    28    29 1   
    44    28    51 1   
    45    28    52 1   
    46    29    30 1   
    47    29    53 1   
    48    29    54 1   
    49    30    31 1   
    50    30    37 2   
    51    31    32 1   
    52    32    33 1   
    53    32    36 2   
    54    33    34 1   
    55    33    35 1   
    56    36    37 1   
    57    37    38 1   
    58    38    55 1   
    59    38    56 1   
    60    38    57 1   
@<TRIPOS>SUBSTRUCTURE
     1 AHZ         1 TEMP              0 ****  ****    0 ROOT
