@<TRIPOS>MOLECULE
AHZ
   57    60     1     0     0
SMALL
No Charge or Current Charge


@<TRIPOS>ATOM
      1 O2          55.5560    25.1100    35.8700 oh         1 AHZ      -0.691000
      2 C2          54.7950    23.8920    36.0230 c5         1 AHZ       0.133300
      3 C3          53.2430    24.1010    35.9930 c5         1 AHZ       0.147300
      4 O3          52.7800    25.1440    36.8850 oh         1 AHZ      -0.732000
      5 C1          54.9150    23.2130    37.4290 c5         1 AHZ       0.269300
      6 N9          56.1260    22.4510    37.7310 na         1 AHZ      -0.288300
      7 C8          56.8420    21.6470    36.8360 cc         1 AHZ       0.450700
      8 N7          57.9380    21.1180    37.4170 nd         1 AHZ      -0.577100
      9 C5          57.8830    21.6220    38.7210 ca         1 AHZ      -0.089600
     10 C6          58.7640    21.4150    39.8020 ca         1 AHZ       0.434900
     11 N1          58.5420    21.9800    40.9990 nb         1 AHZ      -0.322000
     12 C9          57.4350    22.7570    41.0940 ca         1 AHZ       0.150900
     13 N6          59.8730    20.6360    39.7060 nv         1 AHZ      -1.082900
     14 C4          56.7900    22.4260    38.9240 ca         1 AHZ       0.127500
     15 N3          56.5390    23.0140    40.1110 nb         1 AHZ      -0.202000
     16 O4          53.7660    22.3380    37.5360 os         1 AHZ      -0.464000
     17 C11         52.8090    22.6780    36.4900 c5         1 AHZ       0.113300
     18 C10         52.8400    21.5790    35.3770 c3         1 AHZ       0.215600
     19 O5          51.5680    20.9170    35.2870 os         1 AHZ      -0.599400
     20 PA          50.3060    21.6280    34.5760 p5         1 AHZ       1.480800
     21 O2A         49.0180    21.0040    35.0010 o          1 AHZ      -0.855500
     22 O1A         50.2860    23.0910    34.8670 o          1 AHZ      -0.855500
     23 O3A         50.7100    21.3960    33.0720 os         1 AHZ      -0.739800
     24 PB          50.1730    20.0590    32.4400 p5         1 AHZ       1.488800
     25 O1B         48.7230    20.1350    32.0890 o          1 AHZ      -0.866000
     26 O2B         50.5290    18.8160    33.1840 o          1 AHZ      -0.866000
     27 O3B         51.0210    20.1360    31.0680 os         1 AHZ      -0.616400
     28 C7T         52.3700    19.6520    30.9390 c3         1 AHZ       0.233600
     29 C6T         53.3400    20.3950    31.8880 c3         1 AHZ      -0.032100
     30 C5T         54.7920    20.0950    31.5990 cc         1 AHZ      -0.224300
     31 S1T         55.5870    20.8150    30.2290 ss         1 AHZ      -0.125400
     32 C2T         57.0530    19.9580    30.6780 cc         1 AHZ       0.398900
     33 C1R         58.3160    20.0990    29.8240 c          1 AHZ       0.628500
     34 O1R         59.3390    19.4950    30.1390 o          1 AHZ      -0.721000
     35 O2R         58.2980    20.8140    28.8240 o          1 AHZ      -0.721000
     36 N3T         56.9390    19.2080    31.7880 nd         1 AHZ      -0.660000
     37 C4T         55.6570    19.2880    32.3070 cd         1 AHZ       0.264300
     38 C1M         55.3190    18.5150    33.5530 c3         1 AHZ      -0.112400
     39 H1          56.5050    24.8930    36.0180 ho         1 AHZ       0.494000
     40 H2          55.0850    23.1830    35.2340 h1         1 AHZ       0.073700
     41 H3          52.8920    24.2870    34.9660 h1         1 AHZ       0.117700
     42 H11         51.8110    25.2390    36.7330 ho         1 AHZ       0.504000
     43 H9          54.8390    23.9900    38.2020 h2         1 AHZ       0.098700
     44 H8          56.5250    21.4850    35.8110 h5         1 AHZ       0.102800
     45 H10         57.2460    23.2240    42.0590 h5         1 AHZ       0.029100
     46 HN61        59.9360    20.0350    38.8870 hn         1 AHZ       0.499000
     47 HN62        60.2870    20.2830    40.5650 hn         1 AHZ       0.499000
     48 H4          51.8080    22.7000    36.9400 h1         1 AHZ       0.083700
     49 H5'1        53.6260    20.8490    35.6070 h1         1 AHZ       0.046200
     50 H5'2        53.0970    22.0400    34.4140 h1         1 AHZ       0.046200
     51 H7T1        52.7080    19.8000    29.9060 h1         1 AHZ       0.022200
     52 H7T2        52.4160    18.5750    31.1460 h1         1 AHZ       0.022200
     53 H6T1        53.1090    20.1210    32.9220 hc         1 AHZ       0.067700
     54 H6T2        53.1710    21.4750    31.7970 hc         1 AHZ       0.067700
     55 H1M1        56.1100    17.8000    33.8100 hc         1 AHZ       0.044367
     56 H1M2        55.1870    19.1900    34.4060 hc         1 AHZ       0.044367
     57 H1M3        54.3890    17.9500    33.4230 hc         1 AHZ       0.044367
@<TRIPOS>BOND
     1     1     2 1   
     2     1    39 1   
     3     2     3 1   
     4     2     5 1   
     5     2    40 1   
     6     3     4 1   
     7     3    17 1   
     8     3    41 1   
     9     4    42 1   
    10     5     6 1   
    11     5    16 1   
    12     5    43 1   
    13     6     7 1   
    14     6    14 1   
    15     7     8 2   
    16     7    44 1   
    17     8     9 1   
    18     9    10 ar  
    19     9    14 ar  
    20    10    11 ar  
    21    10    13 1   
    22    11    12 ar  
    23    12    15 ar  
    24    12    45 1   
    25    13    46 1   
    26    13    47 1   
    27    14    15 ar  
    28    16    17 1   
    29    17    18 1   
    30    17    48 1   
    31    18    19 1   
    32    18    49 1   
    33    18    50 1   
    34    19    20 1   
    35    20    21 1   
    36    20    22 1   
    37    20    23 1   
    38    23    24 1   
    39    24    25 1   
    40    24    26 1   
    41    24    27 1   
    42    27    28 1   
    43    28    29 1   
    44    28    51 1   
    45    28    52 1   
    46    29    30 1   
    47    29    53 1   
    48    29    54 1   
    49    30    31 1   
    50    30    37 2   
    51    31    32 1   
    52    32    33 1   
    53    32    36 2   
    54    33    34 1   
    55    33    35 1   
    56    36    37 1   
    57    37    38 1   
    58    38    55 1   
    59    38    56 1   
    60    38    57 1   
@<TRIPOS>SUBSTRUCTURE
     1 AHZ         1 TEMP              0 ****  ****    0 ROOT
