@<TRIPOS>MOLECULE
AI0
   35    37     1     0     0
SMALL
bcc


@<TRIPOS>ATOM
      1 C10         21.8370    38.6010    39.4440 ca         1 AI0      -0.133300
      2 C13         22.1130    36.0180    40.4530 ca         1 AI0      -0.107000
      3 C15         22.3230    38.3970    40.7320 ca         1 AI0      -0.102500
      4 C17         16.2740    42.0690    40.0620 ca         1 AI0      -0.104000
      5 C20         13.4100    40.4190    41.7460 ca         1 AI0      -0.077000
      6 C21         13.9840    39.1690    42.0500 ca         1 AI0      -0.248000
      7 C02         15.2830    38.8890    41.7050 ca         1 AI0       0.109800
      8 C03         16.0590    39.8780    41.0260 ca         1 AI0       0.381600
      9 C05         18.0610    40.4760    40.0620 ca         1 AI0       0.393000
     10 C06         19.3990    39.9900    39.7700 ce         1 AI0      -0.017800
     11 C09         21.6720    39.9880    38.9110 c3         1 AI0       0.017600
     12 C11         21.4980    37.4990    38.6630 ca         1 AI0      -0.102500
     13 C12         21.6330    36.2130    39.1650 ca         1 AI0      -0.128000
     14 C14         22.4610    37.1110    41.2360 ca         1 AI0      -0.128000
     15 C16         17.5600    41.7600    39.7240 ca         1 AI0      -0.198300
     16 C18         15.4630    41.1300    40.7310 ca         1 AI0      -0.110300
     17 C19         14.1260    41.3890    41.1000 ca         1 AI0      -0.153000
     18 N04         17.3240    39.5820    40.6930 nb         1 AI0      -0.645000
     19 N07         20.3430    40.6260    39.1460 nh         1 AI0       0.094600
     20 O08         20.2680    41.7920    38.6790 o          1 AI0      -0.341000
     21 H1          22.2210    35.0150    40.8450 ha         1 AI0       0.135000
     22 H2          22.5970    39.2480    41.3440 ha         1 AI0       0.136500
     23 H3          15.8640    43.0420    39.8160 ha         1 AI0       0.140000
     24 H4          12.3830    40.6020    42.0350 ha         1 AI0       0.131000
     25 H5          13.3880    38.4220    42.5630 ha         1 AI0       0.132000
     26 H6          19.6220    38.9910    40.1070 h4         1 AI0       0.051800
     27 H8          21.8100    40.0180    37.8300 h1         1 AI0       0.091200
     28 H9          22.3940    40.6720    39.3590 h1         1 AI0       0.091200
     29 H10         21.1250    37.6490    37.6560 ha         1 AI0       0.136500
     30 H11         21.3670    35.3630    38.5500 ha         1 AI0       0.138000
     31 H12         22.8420    36.9630    42.2380 ha         1 AI0       0.138000
     32 H13         18.1820    42.4750    39.2120 ha         1 AI0       0.179000
     33 H14         13.6840    42.3490    40.8680 ha         1 AI0       0.137000
     34 H15         15.2810    37.1230    42.4110 ho         1 AI0       0.421000
     35 O01         15.8900    37.7230    41.9640 oh         1 AI0      -0.461100
@<TRIPOS>BOND
     1     1     3 ar  
     2     1    11 1   
     3     1    12 ar  
     4     2    13 ar  
     5     2    14 ar  
     6     2    21 1   
     7     3    14 ar  
     8     3    22 1   
     9     4    15 ar  
    10     4    16 ar  
    11     4    23 1   
    12     5     6 ar  
    13     5    17 ar  
    14     5    24 1   
    15     6     7 ar  
    16     6    25 1   
    17     7     8 ar  
    18     7    35 1   
    19     8    16 ar  
    20     8    18 ar  
    21     9    10 1   
    22     9    15 ar  
    23     9    18 ar  
    24    10    19 2   
    25    10    26 1   
    26    11    19 1   
    27    11    27 1   
    28    11    28 1   
    29    12    13 ar  
    30    12    29 1   
    31    13    30 1   
    32    14    31 1   
    33    15    32 1   
    34    16    17 ar  
    35    17    33 1   
    36    19    20 1   
    37    34    35 1   
@<TRIPOS>SUBSTRUCTURE
     1 AI0         1 TEMP              0 ****  ****    0 ROOT
