@<TRIPOS>MOLECULE
AI0
   35    37     1     0     0
SMALL
No Charge or Current Charge


@<TRIPOS>ATOM
      1 C10         21.7650    38.6460    39.5480 ca         1 AI0      -0.133300
      2 C13         21.5710    35.8550    39.9030 ca         1 AI0      -0.089000
      3 C15         22.0870    38.0640    40.7900 ca         1 AI0      -0.084500
      4 C17         16.1810    41.7980    39.6510 ca         1 AI0      -0.086000
      5 C20         13.4550    39.9170    41.3340 ca         1 AI0      -0.059000
      6 C21         14.1930    39.0350    42.1370 ca         1 AI0      -0.230000
      7 C02         15.5990    39.0640    42.1200 ca         1 AI0       0.175100
      8 C03         16.2990    39.9890    41.2870 ca         1 AI0       0.251000
      9 C05         18.2920    40.9150    40.4550 ca         1 AI0       0.327700
     10 C06         19.7800    40.8810    40.4900 ce         1 AI0      -0.017800
     11 C09         21.8610    40.1570    39.3520 c3         1 AI0       0.046900
     12 C11         21.3440    37.8220    38.4850 ca         1 AI0      -0.084500
     13 C12         21.2480    36.4310    38.6630 ca         1 AI0      -0.110000
     14 C14         21.9900    36.6720    40.9660 ca         1 AI0      -0.110000
     15 C16         17.5830    41.8180    39.6410 ca         1 AI0      -0.115000
     16 C18         15.5280    40.8720    40.4830 ca         1 AI0      -0.045000
     17 C19         14.1210    40.8330    40.5090 ca         1 AI0      -0.135000
     18 N04         17.6620    40.0270    41.2610 nb         1 AI0      -0.645000
     19 N07         20.5600    40.8440    39.3330 nh         1 AI0       0.255300
     20 O08         20.1770    41.2710    38.1930 o          1 AI0      -0.531000
     21 H1          21.4960    34.7780    40.0400 ha         1 AI0       0.117000
     22 H2          22.4110    38.6870    41.6210 ha         1 AI0       0.118500
     23 H3          15.6160    42.4890    39.0290 ha         1 AI0       0.122000
     24 H4          12.3660    39.8910    41.3510 ha         1 AI0       0.113000
     25 H5          13.6640    38.3290    42.7740 ha         1 AI0       0.114000
     26 H6          20.2420    40.4620    41.3860 h4         1 AI0       0.051800
     27 H8          22.3900    40.3570    38.4120 h1         1 AI0       0.091200
     28 H9          22.4730    40.5910    40.1520 h1         1 AI0       0.091200
     29 H10         21.0890    38.2600    37.5220 ha         1 AI0       0.118500
     30 H11         20.9220    35.7990    37.8390 ha         1 AI0       0.120000
     31 H12         22.2400    36.2280    41.9270 ha         1 AI0       0.120000
     32 H13         18.1130    42.5330    39.0170 ha         1 AI0       0.161000
     33 H14         13.5420    41.5150    39.8890 ha         1 AI0       0.119000
     34 H15         15.6110    37.6420    43.4100 ho         1 AI0       0.460000
     35 O01         16.2720    38.1790    42.9260 oh         1 AI0      -0.500100
@<TRIPOS>BOND
     1     1     3 ar  
     2     1    11 1   
     3     1    12 ar  
     4     2    13 ar  
     5     2    14 ar  
     6     2    21 1   
     7     3    14 ar  
     8     3    22 1   
     9     4    15 ar  
    10     4    16 ar  
    11     4    23 1   
    12     5     6 ar  
    13     5    17 ar  
    14     5    24 1   
    15     6     7 ar  
    16     6    25 1   
    17     7     8 ar  
    18     7    35 1   
    19     8    16 ar  
    20     8    18 ar  
    21     9    10 1   
    22     9    15 ar  
    23     9    18 ar  
    24    10    19 2   
    25    10    26 1   
    26    11    19 1   
    27    11    27 1   
    28    11    28 1   
    29    12    13 ar  
    30    12    29 1   
    31    13    30 1   
    32    14    31 1   
    33    15    32 1   
    34    16    17 ar  
    35    17    33 1   
    36    19    20 1   
    37    34    35 1   
@<TRIPOS>SUBSTRUCTURE
     1 AI0         1 TEMP              0 ****  ****    0 ROOT
