@<TRIPOS>MOLECULE
AI1
   51    53     1     0     0
SMALL
No Charge or Current Charge


@<TRIPOS>ATOM
      1 C1          -0.4850     0.9940    -3.4590 c6         1 AI1       0.365300
      2 O1          -0.8680     0.2350    -2.2890 os         1 AI1      -0.366100
      3 C2          -1.2100     0.4610    -4.7480 c6         1 AI1       0.115300
      4 O2          -2.6580     0.4190    -4.6210 oh         1 AI1      -0.705000
      5 C3          -0.6800    -0.9610    -5.1100 c6         1 AI1       0.138300
      6 O3          -1.2760    -1.4020    -6.3460 oh         1 AI1      -0.673000
      7 C4           0.8740    -0.9750    -5.2220 c6         1 AI1       0.147300
      8 O4           1.2680    -0.2340    -6.3960 oh         1 AI1      -0.717000
      9 C5           1.4780    -0.3900    -3.9030 c6         1 AI1       0.170300
     10 O5           0.9510     0.9390    -3.6360 os         1 AI1      -0.447000
     11 C6           3.0400    -0.3170    -3.9410 c3         1 AI1       0.171600
     12 O6           3.6210     0.1660    -2.7120 oh         1 AI1      -0.715000
     13 C8          -0.4990     0.6240    -1.0150 ca         1 AI1       0.133100
     14 C9           0.2000     1.8200    -0.7450 ca         1 AI1      -0.158000
     15 C10          0.5330     2.1520     0.5780 ca         1 AI1      -0.087000
     16 C11          0.1730     1.3020     1.6370 ca         1 AI1      -0.125000
     17 C12         -0.5310     0.0980     1.3860 ca         1 AI1      -0.123600
     18 C13         -0.8590    -0.2210     0.0480 ca         1 AI1      -0.091000
     19 C7          -0.9400    -0.8490     2.4990 c          1 AI1       0.614700
     20 O7          -1.5490    -1.8890     2.2830 o          1 AI1      -0.600100
     21 N1          -0.5940    -0.4850     3.7790 ns         1 AI1      -0.503900
     22 C1B         -0.9010    -1.2670     4.9730 c3         1 AI1       0.143300
     23 C2B         -0.3760    -0.5790     6.2230 ca         1 AI1      -0.110300
     24 C3B         -1.1840     0.3390     6.9220 ca         1 AI1      -0.097500
     25 C4B         -0.6960     0.9790     8.0750 ca         1 AI1      -0.112500
     26 C5B          0.6030     0.7060     8.5340 ca         1 AI1      -0.106000
     27 C6B          1.4150    -0.2070     7.8400 ca         1 AI1      -0.112500
     28 C7B          0.9270    -0.8470     6.6870 ca         1 AI1      -0.097500
     29 H1          -0.7860     2.0430    -3.3140 h2         1 AI1       0.077700
     30 H2          -0.9380     1.1440    -5.5670 h1         1 AI1       0.065700
     31 HO2         -2.9660     1.3250    -4.3810 ho         1 AI1       0.511000
     32 H3          -0.9650    -1.6450    -4.2960 h1         1 AI1       0.071700
     33 HO3         -2.2260    -1.1500    -6.2690 ho         1 AI1       0.469000
     34 H4           1.2020    -2.0220    -5.3150 h1         1 AI1       0.054700
     35 HO4          0.5860    -0.4690    -7.0700 ho         1 AI1       0.523000
     36 H5           1.2050    -1.0530    -3.0680 h1         1 AI1       0.069700
     37 HC61         3.3340     0.3340    -4.7750 h1         1 AI1       0.038200
     38 HC62         3.4210    -1.3230    -4.1650 h1         1 AI1       0.038200
     39 HO6          4.5890     0.2610    -2.8690 ho         1 AI1       0.505000
     40 H8           0.4940     2.4990    -1.5400 ha         1 AI1       0.134000
     41 H9           1.0740     3.0730     0.7840 ha         1 AI1       0.115000
     42 H10          0.4510     1.5950     2.6460 ha         1 AI1       0.115000
     43 H6          -1.4000    -1.1370    -0.1780 ha         1 AI1       0.147000
     44 HN'1        -0.0920     0.3850     3.8930 hn         1 AI1       0.318500
     45 H1'1        -1.9900    -1.3950     5.0470 h1         1 AI1       0.063700
     46 H1'2        -0.4480    -2.2630     4.8760 h1         1 AI1       0.063700
     47 H3B         -2.1910     0.5580     6.5710 ha         1 AI1       0.115500
     48 H4B         -1.3250     1.6870     8.6100 ha         1 AI1       0.113000
     49 H11          0.9810     1.2010     9.4260 ha         1 AI1       0.113000
     50 H6B          2.4210    -0.4180     8.1940 ha         1 AI1       0.113000
     51 H7           1.5630    -1.5510     6.1540 ha         1 AI1       0.115500
@<TRIPOS>BOND
     1     1     2 1   
     2     1     3 1   
     3     1    10 1   
     4     1    29 1   
     5     2    13 1   
     6     3     4 1   
     7     3     5 1   
     8     3    30 1   
     9     4    31 1   
    10     5     6 1   
    11     5     7 1   
    12     5    32 1   
    13     6    33 1   
    14     7     8 1   
    15     7     9 1   
    16     7    34 1   
    17     8    35 1   
    18     9    10 1   
    19     9    11 1   
    20     9    36 1   
    21    11    12 1   
    22    11    37 1   
    23    11    38 1   
    24    12    39 1   
    25    13    14 ar  
    26    13    18 ar  
    27    14    15 ar  
    28    14    40 1   
    29    15    16 ar  
    30    15    41 1   
    31    16    17 ar  
    32    16    42 1   
    33    17    18 ar  
    34    17    19 1   
    35    18    43 1   
    36    19    20 2   
    37    19    21 1   
    38    21    22 1   
    39    21    44 1   
    40    22    23 1   
    41    22    45 1   
    42    22    46 1   
    43    23    24 ar  
    44    23    28 ar  
    45    24    25 ar  
    46    24    47 1   
    47    25    26 ar  
    48    25    48 1   
    49    26    27 ar  
    50    26    49 1   
    51    27    28 ar  
    52    27    50 1   
    53    28    51 1   
@<TRIPOS>SUBSTRUCTURE
     1 AI1         1 TEMP              0 ****  ****    0 ROOT
