@<TRIPOS>MOLECULE
AI1
   51    53     1     0     0
SMALL
abcg2


@<TRIPOS>ATOM
      1 C1          -0.4410     0.9450    -3.2840 c6         1 AI1       0.365300
      2 O1          -0.6560     0.1550    -2.1400 os         1 AI1      -0.366100
      3 C2          -1.3050     0.3600    -4.4060 c6         1 AI1       0.115300
      4 O2          -2.6470     0.2130    -4.0200 oh         1 AI1      -0.705000
      5 C3          -0.7700    -1.0040    -4.8260 c6         1 AI1       0.138300
      6 O3          -1.4510    -1.5060    -5.9500 oh         1 AI1      -0.673000
      7 C4           0.7080    -0.8870    -5.1940 c6         1 AI1       0.147300
      8 O4           0.8970    -0.0970    -6.3420 oh         1 AI1      -0.717000
      9 C5           1.4650    -0.2620    -4.0310 c6         1 AI1       0.170300
     10 O5           0.8960     0.9870    -3.6540 os         1 AI1      -0.447000
     11 C6           2.9240    -0.0220    -4.3550 c3         1 AI1       0.171600
     12 O6           3.5970     0.3230    -3.1670 oh         1 AI1      -0.715000
     13 C8          -0.2660     0.5960    -0.9230 ca         1 AI1       0.133100
     14 C9           0.5280     1.7180    -0.6980 ca         1 AI1      -0.158000
     15 C10          0.8450     2.0740     0.6060 ca         1 AI1      -0.087000
     16 C11          0.4130     1.3190     1.6840 ca         1 AI1      -0.125000
     17 C12         -0.3670     0.1860     1.4540 ca         1 AI1      -0.123600
     18 C13         -0.7170    -0.1580     0.1570 ca         1 AI1      -0.091000
     19 C7          -0.8900    -0.6700     2.5650 c          1 AI1       0.614700
     20 O7          -1.9470    -1.2760     2.4510 o          1 AI1      -0.600100
     21 N1          -0.1180    -0.7230     3.6640 ns         1 AI1      -0.503900
     22 C1B         -0.4480    -1.4820     4.8490 c3         1 AI1       0.143300
     23 C2B         -0.2690    -0.6670     6.1050 ca         1 AI1      -0.110300
     24 C3B         -0.8800     0.5780     6.2380 ca         1 AI1      -0.097500
     25 C4B         -0.7330     1.3140     7.4040 ca         1 AI1      -0.112500
     26 C5B          0.0280     0.8140     8.4550 ca         1 AI1      -0.106000
     27 C6B          0.6420    -0.4240     8.3290 ca         1 AI1      -0.112500
     28 C7B          0.4950    -1.1570     7.1580 ca         1 AI1      -0.097500
     29 H1          -0.7340     1.9830    -3.0850 h2         1 AI1       0.077700
     30 H2          -1.2110     1.0440    -5.2570 h1         1 AI1       0.065700
     31 HO2         -3.1000     1.0520    -4.1480 ho         1 AI1       0.511000
     32 H3          -0.8530    -1.7000    -3.9800 h1         1 AI1       0.071700
     33 HO3         -2.3980    -1.4500    -5.7850 ho         1 AI1       0.469000
     34 H4           1.1080    -1.9010    -5.3420 h1         1 AI1       0.054700
     35 HO4          0.3170    -0.4350    -7.0330 ho         1 AI1       0.523000
     36 H5           1.4170    -0.9710    -3.1940 h1         1 AI1       0.069700
     37 HC61         3.0140     0.7610    -5.1150 h1         1 AI1       0.038200
     38 HC62         3.3250    -0.9460    -4.7930 h1         1 AI1       0.038200
     39 HO6          4.5100     0.5220    -3.3930 ho         1 AI1       0.505000
     40 H8           0.9150     2.3150    -1.5110 ha         1 AI1       0.134000
     41 H9           1.4470     2.9560     0.7780 ha         1 AI1       0.115000
     42 H10          0.6630     1.6340     2.6880 ha         1 AI1       0.115000
     43 H6          -1.3400    -1.0240    -0.0280 ha         1 AI1       0.147000
     44 HN'1         0.7990    -0.3080     3.6330 hn         1 AI1       0.318500
     45 H1'1        -1.4830    -1.8120     4.7580 h1         1 AI1       0.063700
     46 H1'2         0.1680    -2.3830     4.9020 h1         1 AI1       0.063700
     47 H3B         -1.4760     0.9770     5.4250 ha         1 AI1       0.115500
     48 H4B         -1.2140     2.2790     7.4960 ha         1 AI1       0.113000
     49 H11          0.1410     1.3890     9.3650 ha         1 AI1       0.113000
     50 H6B          1.2410    -0.8190     9.1400 ha         1 AI1       0.113000
     51 H7           0.9830    -2.1200     7.0620 ha         1 AI1       0.115500
@<TRIPOS>BOND
     1     1     2 1   
     2     1     3 1   
     3     1    10 1   
     4     1    29 1   
     5     2    13 1   
     6     3     4 1   
     7     3     5 1   
     8     3    30 1   
     9     4    31 1   
    10     5     6 1   
    11     5     7 1   
    12     5    32 1   
    13     6    33 1   
    14     7     8 1   
    15     7     9 1   
    16     7    34 1   
    17     8    35 1   
    18     9    10 1   
    19     9    11 1   
    20     9    36 1   
    21    11    12 1   
    22    11    37 1   
    23    11    38 1   
    24    12    39 1   
    25    13    14 ar  
    26    13    18 ar  
    27    14    15 ar  
    28    14    40 1   
    29    15    16 ar  
    30    15    41 1   
    31    16    17 ar  
    32    16    42 1   
    33    17    18 ar  
    34    17    19 1   
    35    18    43 1   
    36    19    20 2   
    37    19    21 1   
    38    21    22 1   
    39    21    44 1   
    40    22    23 1   
    41    22    45 1   
    42    22    46 1   
    43    23    24 ar  
    44    23    28 ar  
    45    24    25 ar  
    46    24    47 1   
    47    25    26 ar  
    48    25    48 1   
    49    26    27 ar  
    50    26    49 1   
    51    27    28 ar  
    52    27    50 1   
    53    28    51 1   
@<TRIPOS>SUBSTRUCTURE
     1 AI1         1 TEMP              0 ****  ****    0 ROOT
