@<TRIPOS>MOLECULE
AI3
   40    44     1     0     0
SMALL
No Charge or Current Charge


@<TRIPOS>ATOM
      1 C1           2.3110    -1.0990     0.0020 ca         1 AI3      -0.237000
      2 C2           1.4550     0.0150    -0.0150 ca         1 AI3       0.085000
      3 C3           1.9860     1.3270    -0.0240 ca         1 AI3      -0.071000
      4 C4           3.3800     1.5160    -0.0150 ca         1 AI3      -0.188000
      5 C5           4.2490     0.4000     0.0030 ca         1 AI3       0.166100
      6 C6           3.7120    -0.9110     0.0110 ca         1 AI3       0.222100
      7 C13          1.1190     2.4490    -0.0410 ca         1 AI3      -0.029000
      8 N14         -0.2740     2.2980    -0.0500 na         1 AI3      -0.069700
      9 C15         -0.7980     0.9770    -0.0420 cp         1 AI3       0.041700
     10 C16          0.0590    -0.1280    -0.0250 ca         1 AI3      -0.093300
     11 C22         -0.8280    -1.3830    -0.0200 c5         1 AI3       0.007200
     12 C23         -2.2690    -0.8620    -0.0360 ca         1 AI3      -0.045300
     13 C24         -2.1970     0.5420    -0.0490 cp         1 AI3      -0.111000
     14 C29         -3.3850     1.3140    -0.0620 ca         1 AI3      -0.061000
     15 C30         -4.6010     0.6080    -0.0660 ca         1 AI3       0.065100
     16 C31         -4.6520    -0.7670    -0.0530 ca         1 AI3       0.110100
     17 C32         -3.4910    -1.5580    -0.0350 ca         1 AI3      -0.086000
     18 O38         -5.9260    -1.2350    -0.0450 os         1 AI3      -0.322100
     19 C39         -6.7270    -0.0040    -0.1440 c5         1 AI3       0.371600
     20 O40         -5.8380     1.1680    -0.0670 os         1 AI3      -0.329100
     21 O45          4.5900    -1.9840     0.0280 os         1 AI3      -0.285100
     22 C47          4.1440    -3.3510     0.0380 c3         1 AI3       0.133900
     23 O49          5.6280     0.5500     0.0120 os         1 AI3      -0.294100
     24 C51          6.2680     1.8380     0.0050 c3         1 AI3       0.134900
     25 H1           1.8800    -2.0950     0.0080 ha         1 AI3       0.147000
     26 H4           3.7710     2.5300    -0.0210 ha         1 AI3       0.144000
     27 H13          1.5080     3.4680    -0.0480 h4         1 AI3       0.173000
     28 H14         -0.9330     3.0680    -0.0630 hn         1 AI3       0.382000
     29 H221        -0.6270    -2.0180    -0.8900 hc         1 AI3       0.101700
     30 H222        -0.6400    -2.0010     0.8660 hc         1 AI3       0.101700
     31 H29         -3.3670     2.4000    -0.0680 ha         1 AI3       0.139000
     32 H32         -3.5390    -2.6440    -0.0210 ha         1 AI3       0.157000
     33 H391        -7.2500     0.0060    -1.1070 h2         1 AI3       0.086700
     34 H392        -7.4550     0.0300     0.6750 h2         1 AI3       0.086700
     35 H471         3.5500    -3.5760    -0.8570 h1         1 AI3       0.063033
     36 H472         5.0050    -4.0310     0.0510 h1         1 AI3       0.063033
     37 H473         3.5360    -3.5590     0.9270 h1         1 AI3       0.063033
     38 H511         7.3590     1.7190     0.0150 h1         1 AI3       0.059367
     39 H512         5.9980     2.4050    -0.8950 h1         1 AI3       0.059367
     40 H513         5.9840     2.4220     0.8900 h1         1 AI3       0.059367
@<TRIPOS>BOND
     1     1     2 ar  
     2     1     6 ar  
     3     1    25 1   
     4     2     3 ar  
     5     2    10 ar  
     6     3     4 ar  
     7     3     7 ar  
     8     4     5 ar  
     9     4    26 1   
    10     5     6 ar  
    11     5    23 1   
    12     6    21 1   
    13     7     8 1   
    14     7    27 1   
    15     8     9 2   
    16     8    28 1   
    17     9    10 ar  
    18     9    13 1   
    19    10    11 1   
    20    11    12 1   
    21    11    29 1   
    22    11    30 1   
    23    12    13 ar  
    24    12    17 ar  
    25    13    14 ar  
    26    14    15 ar  
    27    14    31 1   
    28    15    16 ar  
    29    15    20 1   
    30    16    17 ar  
    31    16    18 1   
    32    17    32 1   
    33    18    19 1   
    34    19    20 1   
    35    19    33 1   
    36    19    34 1   
    37    21    22 1   
    38    22    35 1   
    39    22    36 1   
    40    22    37 1   
    41    23    24 1   
    42    24    38 1   
    43    24    39 1   
    44    24    40 1   
@<TRIPOS>SUBSTRUCTURE
     1 AI3         1 TEMP              0 ****  ****    0 ROOT
