@<TRIPOS>MOLECULE
AI3
   40    44     1     0     0
SMALL
abcg2


@<TRIPOS>ATOM
      1 C1           2.3050    -1.1320     0.0130 ca         1 AI3      -0.237000
      2 C2           1.4160    -0.0400     0.0040 ca         1 AI3       0.085000
      3 C3           1.9420     1.2850    -0.0110 ca         1 AI3      -0.071000
      4 C4           3.3460     1.4910    -0.0150 ca         1 AI3      -0.188000
      5 C5           4.1940     0.4240    -0.0060 ca         1 AI3       0.166100
      6 C6           3.6600    -0.9170     0.0070 ca         1 AI3       0.222100
      7 C13          1.0670     2.3620    -0.0240 ca         1 AI3      -0.029000
      8 N14         -0.2480     2.1730    -0.0230 na         1 AI3      -0.069700
      9 C15         -0.7880     0.9370    -0.0090 cp         1 AI3       0.041700
     10 C16          0.0220    -0.1750     0.0060 ca         1 AI3      -0.093300
     11 C22         -0.8340    -1.4020     0.0180 c5         1 AI3       0.007200
     12 C23         -2.2250    -0.8330     0.0070 ca         1 AI3      -0.045300
     13 C24         -2.1840     0.5650    -0.0090 cp         1 AI3      -0.111000
     14 C29         -3.3390     1.3570    -0.0290 ca         1 AI3      -0.061000
     15 C30         -4.5180     0.6580    -0.0360 ca         1 AI3       0.065100
     16 C31         -4.5640    -0.7360    -0.0220 ca         1 AI3       0.110100
     17 C32         -3.4350    -1.5210     0.0030 ca         1 AI3      -0.086000
     18 O38         -5.8510    -1.1360    -0.0160 os         1 AI3      -0.322100
     19 C39         -6.6410     0.0300    -0.2200 c5         1 AI3       0.371600
     20 O40         -5.7790     1.1440    -0.0340 os         1 AI3      -0.329100
     21 O45          4.5820    -1.8660     0.0110 os         1 AI3      -0.285100
     22 C47          4.1660    -3.2240     0.0160 c3         1 AI3       0.133900
     23 O49          5.5240     0.4850    -0.0110 os         1 AI3      -0.294100
     24 C51          6.1310     1.7660    -0.0290 c3         1 AI3       0.134900
     25 H1           1.9030    -2.1350     0.0240 ha         1 AI3       0.147000
     26 H4           3.7190     2.5060    -0.0250 ha         1 AI3       0.144000
     27 H13          1.4050     3.3880    -0.0370 h4         1 AI3       0.173000
     28 H14         -0.8490     2.9870    -0.0360 hn         1 AI3       0.382000
     29 H221        -0.6470    -2.0390    -0.8520 hc         1 AI3       0.101700
     30 H222        -0.6510    -2.0190     0.9020 hc         1 AI3       0.101700
     31 H29         -3.3150     2.4390    -0.0370 ha         1 AI3       0.139000
     32 H32         -3.4870    -2.6010     0.0170 ha         1 AI3       0.157000
     33 H391        -7.0410     0.0320    -1.2380 h2         1 AI3       0.086700
     34 H392        -7.4470     0.0610     0.5110 h2         1 AI3       0.086700
     35 H471         3.5800    -3.4650    -0.8730 h1         1 AI3       0.063033
     36 H472         5.0740    -3.8190     0.0180 h1         1 AI3       0.063033
     37 H473         3.5820    -3.4580     0.9080 h1         1 AI3       0.063033
     38 H511         7.2040     1.5980    -0.0340 h1         1 AI3       0.059367
     39 H512         5.8510     2.3280    -0.9230 h1         1 AI3       0.059367
     40 H513         5.8630     2.3480     0.8560 h1         1 AI3       0.059367
@<TRIPOS>BOND
     1     1     2 ar  
     2     1     6 ar  
     3     1    25 1   
     4     2     3 ar  
     5     2    10 ar  
     6     3     4 ar  
     7     3     7 ar  
     8     4     5 ar  
     9     4    26 1   
    10     5     6 ar  
    11     5    23 1   
    12     6    21 1   
    13     7     8 1   
    14     7    27 1   
    15     8     9 2   
    16     8    28 1   
    17     9    10 ar  
    18     9    13 1   
    19    10    11 1   
    20    11    12 1   
    21    11    29 1   
    22    11    30 1   
    23    12    13 ar  
    24    12    17 ar  
    25    13    14 ar  
    26    14    15 ar  
    27    14    31 1   
    28    15    16 ar  
    29    15    20 1   
    30    16    17 ar  
    31    16    18 1   
    32    17    32 1   
    33    18    19 1   
    34    19    20 1   
    35    19    33 1   
    36    19    34 1   
    37    21    22 1   
    38    22    35 1   
    39    22    36 1   
    40    22    37 1   
    41    23    24 1   
    42    24    38 1   
    43    24    39 1   
    44    24    40 1   
@<TRIPOS>SUBSTRUCTURE
     1 AI3         1 TEMP              0 ****  ****    0 ROOT
