@<TRIPOS>MOLECULE
AI4
   77    82     1     0     0
SMALL
No Charge or Current Charge


@<TRIPOS>ATOM
      1 C10         55.4660   -26.3420   126.0150 ca         1 AI4       0.368300
      2 C15         56.3060   -27.3510   128.7960 ca         1 AI4       0.232000
      3 C17         58.3950   -28.1100   129.7570 ca         1 AI4      -0.023200
      4 C20         56.5850   -28.9520   130.8010 cc         1 AI4      -0.214200
      5 C21         57.7230   -29.4450   131.4250 cd         1 AI4      -0.061300
      6 C24         57.8100   -30.3810   132.6000 c3         1 AI4      -0.039900
      7 C01         53.4050   -23.3020   125.2190 ca         1 AI4       0.107100
      8 C02         52.4810   -23.8650   124.3080 ca         1 AI4       0.168100
      9 C03         52.5660   -25.2370   123.9800 ca         1 AI4      -0.196000
     10 C04         53.5580   -26.0530   124.5480 ca         1 AI4       0.058000
     11 C05         54.4820   -25.4890   125.4590 ca         1 AI4      -0.140000
     12 C06         54.4050   -24.1190   125.7930 ca         1 AI4      -0.134000
     13 C08         54.6050   -28.0900   124.8010 ca         1 AI4       0.157900
     14 C14         57.0350   -26.5900   127.8440 ca         1 AI4       0.027100
     15 C16         57.0280   -28.1020   129.7350 ca         1 AI4      -0.133800
     16 C18         59.1430   -27.3610   128.8390 ca         1 AI4      -0.136000
     17 C19         58.4490   -26.5920   127.8770 ca         1 AI4      -0.063000
     18 C25         50.5390   -23.5170   122.8130 c3         1 AI4       0.164600
     19 C27         50.4100   -21.1920   121.7060 c3         1 AI4       0.183800
     20 C29         54.1930   -21.2910   126.4370 c3         1 AI4       0.142900
     21 C30         48.9640   -19.2720   122.4040 c6         1 AI4       0.175800
     22 C31         48.4140   -17.8910   121.9430 c6         1 AI4      -0.069400
     23 C32         47.7350   -19.0910   119.8100 c6         1 AI4      -0.069400
     24 C33         48.6190   -20.3150   120.1850 c6         1 AI4       0.175800
     25 C34         48.2850   -17.7650   120.3970 c6         1 AI4      -0.014400
     26 C35         47.4490   -16.5430   119.9820 ca         1 AI4      -0.050300
     27 C36         46.0790   -16.4590   120.2970 ca         1 AI4      -0.119500
     28 C37         45.3250   -15.3380   119.9130 ca         1 AI4      -0.070500
     29 C38         45.9220   -14.2710   119.2050 ca         1 AI4      -0.157600
     30 C39         47.2990   -14.3590   118.8920 ca         1 AI4      -0.070500
     31 C40         48.0510   -15.4830   119.2780 ca         1 AI4      -0.119500
     32 C41         45.0820   -13.0760   118.8050 c          1 AI4       0.616700
     33 N07         53.6290   -27.3610   124.2260 nb         1 AI4      -0.193000
     34 N09         55.5280   -27.6470   125.6750 nb         1 AI4      -0.262000
     35 N22         58.8660   -28.9220   130.7760 na         1 AI4      -0.218700
     36 N28         49.5900   -20.0260   121.2840 n3         1 AI4      -0.739600
     37 N42         45.6780   -12.0690   118.1290 nt         1 AI4      -0.604000
     38 O11         51.5110   -23.0430   123.7600 os         1 AI4      -0.330100
     39 O12         53.3000   -21.9530   125.5230 os         1 AI4      -0.322100
     40 O13         56.3940   -25.8200   126.8950 os         1 AI4      -0.351400
     41 O43         43.8940   -12.9860   119.0680 o          1 AI4      -0.605100
     42 H201        55.5590   -29.1800   131.0810 ha         1 AI4       0.214000
     43 H242        58.3370   -29.9120   133.4390 hc         1 AI4       0.051033
     44 H241        56.8120   -30.6690   132.9530 hc         1 AI4       0.051033
     45 H243        58.3480   -31.2980   132.3340 hc         1 AI4       0.051033
     46 H261        49.1510   -21.9450   123.3230 hc         1 AI4       0.055200
     47 H262        48.8460   -22.7090   121.7660 hc         1 AI4       0.055200
     48 H031        51.8660   -25.6880   123.2840 ha         1 AI4       0.141000
     49 H061        55.1220   -23.7030   126.4950 ha         1 AI4       0.139000
     50 H081        54.6530   -29.1430   124.5300 h5         1 AI4       0.048100
     51 H181        60.2300   -27.3680   128.8650 ha         1 AI4       0.122000
     52 H191        59.0060   -26.0000   127.1540 ha         1 AI4       0.128000
     53 H252        49.9210   -24.3080   123.2570 h1         1 AI4       0.040700
     54 H251        51.0290   -23.9180   121.9150 h1         1 AI4       0.040700
     55 H271        50.9130   -21.6180   120.8270 h1         1 AI4       0.056700
     56 H272        51.2070   -20.8430   122.3780 h1         1 AI4       0.056700
     57 H292        53.9260   -20.2310   126.5270 h1         1 AI4       0.043367
     58 H291        54.1340   -21.7420   127.4350 h1         1 AI4       0.043367
     59 H293        55.2290   -21.3510   126.0820 h1         1 AI4       0.043367
     60 H301        48.1340   -19.8570   122.8260 h1         1 AI4       0.033950
     61 H311        47.4420   -17.7240   122.4270 hc         1 AI4       0.044200
     62 H321        47.6540   -19.0160   118.7170 hc         1 AI4       0.044200
     63 H331        49.1720   -20.6350   119.2900 h1         1 AI4       0.033950
     64 H361        45.5920   -17.2630   120.8430 ha         1 AI4       0.116000
     65 H371        44.2680   -15.3010   120.1700 ha         1 AI4       0.121500
     66 H391        47.8050   -13.5640   118.3500 ha         1 AI4       0.121500
     67 H401        49.1080   -15.5250   119.0260 ha         1 AI4       0.116000
     68 H1          59.8360   -29.1050   131.0110 hn         1 AI4       0.350000
     69 H421        45.1290   -11.2680   117.8570 hn         1 AI4       0.312000
     70 H422        46.6580   -12.1210   117.9010 hn         1 AI4       0.312000
     71 H2          49.6870   -19.1110   123.2170 h1         1 AI4       0.033950
     72 H3          49.0740   -17.0940   122.3110 hc         1 AI4       0.044200
     73 H4          46.7170   -19.2650   120.1820 hc         1 AI4       0.044200
     74 H5          47.9510   -21.1450   120.4570 h1         1 AI4       0.033950
     75 H6          49.3000   -17.6350   119.9950 hc         1 AI4       0.065700
     76 F23         54.9520   -27.3470   128.8190 f          1 AI4      -0.161000
     77 C26         49.6380   -22.3300   122.4210 c3         1 AI4      -0.118400
@<TRIPOS>BOND
     1     1    11 ar  
     2     1    34 ar  
     3     1    40 1   
     4     2    14 ar  
     5     2    15 ar  
     6     2    76 1   
     7     3    15 ar  
     8     3    16 ar  
     9     3    35 1   
    10     4     5 2   
    11     4    15 1   
    12     4    42 1   
    13     5     6 1   
    14     5    35 1   
    15     6    43 1   
    16     6    44 1   
    17     6    45 1   
    18     7     8 ar  
    19     7    12 ar  
    20     7    39 1   
    21     8     9 ar  
    22     8    38 1   
    23     9    10 ar  
    24     9    48 1   
    25    10    11 ar  
    26    10    33 ar  
    27    11    12 ar  
    28    12    49 1   
    29    13    33 ar  
    30    13    34 ar  
    31    13    50 1   
    32    14    17 ar  
    33    14    40 1   
    34    16    17 ar  
    35    16    51 1   
    36    17    52 1   
    37    18    38 1   
    38    18    53 1   
    39    18    54 1   
    40    18    77 1   
    41    19    36 1   
    42    19    55 1   
    43    19    56 1   
    44    19    77 1   
    45    20    39 1   
    46    20    57 1   
    47    20    58 1   
    48    20    59 1   
    49    21    22 1   
    50    21    36 1   
    51    21    60 1   
    52    21    71 1   
    53    22    25 1   
    54    22    61 1   
    55    22    72 1   
    56    23    24 1   
    57    23    25 1   
    58    23    62 1   
    59    23    73 1   
    60    24    36 1   
    61    24    63 1   
    62    24    74 1   
    63    25    26 1   
    64    25    75 1   
    65    26    27 ar  
    66    26    31 ar  
    67    27    28 ar  
    68    27    64 1   
    69    28    29 ar  
    70    28    65 1   
    71    29    30 ar  
    72    29    32 1   
    73    30    31 ar  
    74    30    66 1   
    75    31    67 1   
    76    32    37 1   
    77    32    41 2   
    78    35    68 1   
    79    37    69 1   
    80    37    70 1   
    81    46    77 1   
    82    47    77 1   
@<TRIPOS>SUBSTRUCTURE
     1 AI4         1 TEMP              0 ****  ****    0 ROOT
