@<TRIPOS>MOLECULE
AI4
   77    82     1     0     0
SMALL
abcg2


@<TRIPOS>ATOM
      1 C10         54.8000   -26.1490   126.1540 ca         1 AI4       0.368300
      2 C15         55.7170   -26.7880   129.1230 ca         1 AI4       0.232000
      3 C17         57.9660   -27.2750   129.8000 ca         1 AI4      -0.023200
      4 C20         56.4080   -28.1120   131.2490 cc         1 AI4      -0.214200
      5 C21         57.6620   -28.4260   131.6990 cd         1 AI4      -0.061300
      6 C24         58.0730   -29.1790   132.9110 c3         1 AI4      -0.039900
      7 C01         52.7550   -23.4360   124.6190 ca         1 AI4       0.107100
      8 C02         52.1950   -24.1750   123.5220 ca         1 AI4       0.168100
      9 C03         52.5150   -25.4970   123.3430 ca         1 AI4      -0.196000
     10 C04         53.3890   -26.1450   124.2400 ca         1 AI4       0.058000
     11 C05         53.9340   -25.4150   125.3110 ca         1 AI4      -0.140000
     12 C06         53.6090   -24.0520   125.4920 ca         1 AI4      -0.134000
     13 C08         54.4940   -28.0010   124.9130 ca         1 AI4       0.157900
     14 C14         56.2160   -26.1250   128.0250 ca         1 AI4       0.027100
     15 C16         56.5780   -27.3780   130.0390 ca         1 AI4      -0.133800
     16 C18         58.4880   -26.6100   128.6920 ca         1 AI4      -0.136000
     17 C19         57.5940   -26.0400   127.8080 ca         1 AI4      -0.063000
     18 C25         50.7240   -24.0900   121.6460 c3         1 AI4       0.164600
     19 C27         50.4900   -21.8600   120.4380 c3         1 AI4       0.183800
     20 C29         52.8630   -21.3620   125.7430 c3         1 AI4       0.142900
     21 C30         49.6150   -20.0600   121.8320 c6         1 AI4       0.175800
     22 C31         49.4040   -18.5440   121.7490 c6         1 AI4      -0.069400
     23 C32         47.7720   -19.2790   120.0100 c6         1 AI4      -0.069400
     24 C33         48.5630   -20.5610   119.7270 c6         1 AI4       0.175800
     25 C34         48.7150   -18.1510   120.4280 c6         1 AI4      -0.014400
     26 C35         48.0240   -16.8170   120.5290 ca         1 AI4      -0.050300
     27 C36         46.9160   -16.6290   121.3570 ca         1 AI4      -0.119500
     28 C37         46.2910   -15.3990   121.4470 ca         1 AI4      -0.070500
     29 C38         46.7460   -14.3130   120.6990 ca         1 AI4      -0.157600
     30 C39         47.8580   -14.4890   119.8800 ca         1 AI4      -0.070500
     31 C40         48.4840   -15.7240   119.8000 ca         1 AI4      -0.119500
     32 C41         46.0400   -13.0040   120.8460 c          1 AI4       0.616700
     33 N07         53.6850   -27.4560   124.0510 nb         1 AI4      -0.193000
     34 N09         55.0760   -27.4060   125.9690 nb         1 AI4      -0.262000
     35 N22         58.5890   -27.9220   130.8260 na         1 AI4      -0.218700
     36 N28         49.7930   -20.5970   120.4980 n3         1 AI4      -0.739600
     37 N42         46.1750   -12.1330   119.8310 nt         1 AI4      -0.604000
     38 O11         51.3730   -23.4690   122.7520 os         1 AI4      -0.330100
     39 O12         52.3660   -22.1570   124.6840 os         1 AI4      -0.322100
     40 O13         55.3460   -25.4770   127.1740 os         1 AI4      -0.351400
     41 O43         45.3820   -12.7510   121.8460 o          1 AI4      -0.605100
     42 H201        55.4820   -28.3790   131.7320 ha         1 AI4       0.214000
     43 H242        58.6860   -28.5660   133.5730 hc         1 AI4       0.051033
     44 H241        57.1970   -29.5050   133.4680 hc         1 AI4       0.051033
     45 H243        58.6580   -30.0630   132.6510 hc         1 AI4       0.051033
     46 H261        49.0890   -22.7510   121.8570 hc         1 AI4       0.055200
     47 H262        49.1500   -23.5780   120.3210 hc         1 AI4       0.055200
     48 H031        52.1090   -26.0730   122.5230 ha         1 AI4       0.141000
     49 H061        54.0350   -23.5090   126.3230 ha         1 AI4       0.139000
     50 H081        54.7360   -29.0490   124.7740 h5         1 AI4       0.048100
     51 H181        59.5540   -26.5410   128.5250 ha         1 AI4       0.122000
     52 H191        57.9530   -25.5080   126.9360 ha         1 AI4       0.128000
     53 H252        50.1800   -24.9780   121.9820 h1         1 AI4       0.040700
     54 H251        51.4680   -24.4120   120.9090 h1         1 AI4       0.040700
     55 H271        50.7110   -22.0800   119.3890 h1         1 AI4       0.056700
     56 H272        51.4580   -21.7170   120.9260 h1         1 AI4       0.056700
     57 H292        52.4280   -20.3740   125.6150 h1         1 AI4       0.043367
     58 H291        52.5680   -21.7570   126.7180 h1         1 AI4       0.043367
     59 H293        53.9520   -21.2780   125.7090 h1         1 AI4       0.043367
     60 H301        48.7720   -20.5270   122.3670 h1         1 AI4       0.033950
     61 H311        48.8020   -18.2200   122.6020 hc         1 AI4       0.044200
     62 H321        47.1990   -19.0000   119.1240 hc         1 AI4       0.044200
     63 H331        48.8270   -20.6100   118.6650 h1         1 AI4       0.033950
     64 H361        46.5350   -17.4560   121.9450 ha         1 AI4       0.116000
     65 H371        45.4360   -15.2810   122.0990 ha         1 AI4       0.121500
     66 H391        48.2690   -13.6640   119.3120 ha         1 AI4       0.121500
     67 H401        49.3510   -15.8370   119.1600 ha         1 AI4       0.116000
     68 H1          59.5870   -28.0160   130.9280 hn         1 AI4       0.350000
     69 H421        45.6930   -11.2500   119.8710 hn         1 AI4       0.312000
     70 H422        46.5720   -12.3910   118.9450 hn         1 AI4       0.312000
     71 H2          50.5050   -20.2800   122.4260 h1         1 AI4       0.033950
     72 H3          50.3580   -18.0190   121.8240 hc         1 AI4       0.044200
     73 H4          47.0440   -19.4540   120.8070 hc         1 AI4       0.044200
     74 H5          47.9120   -21.4260   119.9270 h1         1 AI4       0.033950
     75 H6          49.4850   -18.0590   119.6570 hc         1 AI4       0.065700
     76 F23         54.3930   -26.8690   129.3070 f          1 AI4      -0.161000
     77 C26         49.7690   -23.0700   121.0640 c3         1 AI4      -0.118400
@<TRIPOS>BOND
     1     1    11 ar  
     2     1    34 ar  
     3     1    40 1   
     4     2    14 ar  
     5     2    15 ar  
     6     2    76 1   
     7     3    15 ar  
     8     3    16 ar  
     9     3    35 1   
    10     4     5 2   
    11     4    15 1   
    12     4    42 1   
    13     5     6 1   
    14     5    35 1   
    15     6    43 1   
    16     6    44 1   
    17     6    45 1   
    18     7     8 ar  
    19     7    12 ar  
    20     7    39 1   
    21     8     9 ar  
    22     8    38 1   
    23     9    10 ar  
    24     9    48 1   
    25    10    11 ar  
    26    10    33 ar  
    27    11    12 ar  
    28    12    49 1   
    29    13    33 ar  
    30    13    34 ar  
    31    13    50 1   
    32    14    17 ar  
    33    14    40 1   
    34    16    17 ar  
    35    16    51 1   
    36    17    52 1   
    37    18    38 1   
    38    18    53 1   
    39    18    54 1   
    40    18    77 1   
    41    19    36 1   
    42    19    55 1   
    43    19    56 1   
    44    19    77 1   
    45    20    39 1   
    46    20    57 1   
    47    20    58 1   
    48    20    59 1   
    49    21    22 1   
    50    21    36 1   
    51    21    60 1   
    52    21    71 1   
    53    22    25 1   
    54    22    61 1   
    55    22    72 1   
    56    23    24 1   
    57    23    25 1   
    58    23    62 1   
    59    23    73 1   
    60    24    36 1   
    61    24    63 1   
    62    24    74 1   
    63    25    26 1   
    64    25    75 1   
    65    26    27 ar  
    66    26    31 ar  
    67    27    28 ar  
    68    27    64 1   
    69    28    29 ar  
    70    28    65 1   
    71    29    30 ar  
    72    29    32 1   
    73    30    31 ar  
    74    30    66 1   
    75    31    67 1   
    76    32    37 1   
    77    32    41 2   
    78    35    68 1   
    79    37    69 1   
    80    37    70 1   
    81    46    77 1   
    82    47    77 1   
@<TRIPOS>SUBSTRUCTURE
     1 AI4         1 TEMP              0 ****  ****    0 ROOT
