@<TRIPOS>MOLECULE
AI7
   36    36     1     0     0
SMALL
No Charge or Current Charge


@<TRIPOS>ATOM
      1 C1          -5.6020    -4.3820    -8.0040 ca         1 AI7      -0.115000
      2 C2          -7.8220    -3.9170    -6.3540 ca         1 AI7      -0.118000
      3 C3          -8.0100    -4.2350    -7.7090 ca         1 AI7      -0.115000
      4 C4           0.1810    -3.0390    -1.6220 c3         1 AI7      -0.075400
      5 C6          -2.2760    -3.6860    -4.6560 c3         1 AI7      -0.081400
      6 C7          -6.5260    -3.8300    -5.8200 ca         1 AI7      -0.224000
      7 C8          -3.8090    -3.6750    -4.8120 c3         1 AI7       0.171600
      8 C9           2.1760    -2.7210    -0.0280 c3         1 AI7      -0.088100
      9 C10          1.7170    -3.0490    -1.4610 c3         1 AI7      -0.075400
     10 C11         -5.4090    -4.0640    -6.6490 ca         1 AI7       0.099100
     11 C12         -0.2790    -3.3680    -3.0590 c3         1 AI7      -0.075400
     12 C13         -1.8160    -3.3570    -3.2190 c3         1 AI7      -0.074400
     13 C14         -6.9020    -4.4730    -8.5570 ca         1 AI7      -0.105600
     14 O15         -6.1150    -5.0160   -10.7230 o          1 AI7      -0.719500
     15 O16         -4.1130    -3.9930    -6.1810 os         1 AI7      -0.358100
     16 O17         -8.2430    -4.8870   -10.4650 o          1 AI7      -0.719500
     17 H1          -4.7290    -4.5580    -8.6270 ha         1 AI7       0.140000
     18 H2          -8.6840    -3.7370    -5.7160 ha         1 AI7       0.082000
     19 H3          -9.0230    -4.2960    -8.1000 ha         1 AI7       0.127000
     20 H41         -0.2040    -2.0510    -1.3370 hc         1 AI7       0.035700
     21 H42         -0.2580    -3.7660    -0.9270 hc         1 AI7       0.035700
     22 H61         -1.8960    -4.6750    -4.9410 hc         1 AI7       0.052200
     23 H62         -1.8410    -2.9580    -5.3510 hc         1 AI7       0.052200
     24 H7          -6.4110    -3.5820    -4.7690 ha         1 AI7       0.086000
     25 H81         -4.1970    -2.6820    -4.5490 h1         1 AI7       0.023200
     26 H82         -4.2520    -4.4170    -4.1340 h1         1 AI7       0.023200
     27 H91          1.8320    -1.7230     0.2710 hc         1 AI7       0.028367
     28 H92          3.2700    -2.7400     0.0370 hc         1 AI7       0.028367
     29 H93          1.7770    -3.4530     0.6850 hc         1 AI7       0.028367
     30 H101         2.1050    -4.0350    -1.7430 hc         1 AI7       0.036700
     31 H102         2.1590    -2.3210    -2.1530 hc         1 AI7       0.036700
     32 H121         0.1600    -2.6400    -3.7530 hc         1 AI7       0.038200
     33 H122         0.1060    -4.3550    -3.3430 hc         1 AI7       0.038200
     34 H131        -2.2010    -2.3700    -2.9350 hc         1 AI7       0.035200
     35 H132        -2.2550    -4.0850    -2.5250 hc         1 AI7       0.035200
     36 C5          -7.1020    -4.8180   -10.0270 c          1 AI7       0.712600
@<TRIPOS>BOND
     1     1    10 ar  
     2     1    13 ar  
     3     1    17 1   
     4     2     3 ar  
     5     2     6 ar  
     6     2    18 1   
     7     3    13 ar  
     8     3    19 1   
     9     4     9 1   
    10     4    11 1   
    11     4    20 1   
    12     4    21 1   
    13     5     7 1   
    14     5    12 1   
    15     5    22 1   
    16     5    23 1   
    17     6    10 ar  
    18     6    24 1   
    19     7    15 1   
    20     7    25 1   
    21     7    26 1   
    22     8     9 1   
    23     8    27 1   
    24     8    28 1   
    25     8    29 1   
    26     9    30 1   
    27     9    31 1   
    28    10    15 1   
    29    11    12 1   
    30    11    32 1   
    31    11    33 1   
    32    12    34 1   
    33    12    35 1   
    34    13    36 1   
    35    14    36 1   
    36    16    36 1   
@<TRIPOS>SUBSTRUCTURE
     1 AI7         1 TEMP              0 ****  ****    0 ROOT
