@<TRIPOS>MOLECULE
AI7
   36    36     1     0     0
SMALL
abcg2


@<TRIPOS>ATOM
      1 C1          -5.5710    -4.3520    -7.9570 ca         1 AI7      -0.115000
      2 C2          -7.7140    -3.9250    -6.2730 ca         1 AI7      -0.118000
      3 C3          -7.9390    -4.1990    -7.6110 ca         1 AI7      -0.115000
      4 C4           0.1150    -3.0290    -1.6780 c3         1 AI7      -0.075400
      5 C6          -2.2390    -3.7450    -4.7080 c3         1 AI7      -0.081400
      6 C7          -6.4220    -3.8610    -5.7570 ca         1 AI7      -0.224000
      7 C8          -3.7440    -3.7400    -4.8690 c3         1 AI7       0.171600
      8 C9           2.0450    -2.6670    -0.0700 c3         1 AI7      -0.088100
      9 C10          1.6250    -3.0590    -1.4800 c3         1 AI7      -0.075400
     10 C11         -5.3420    -4.0780    -6.6090 ca         1 AI7       0.099100
     11 C12         -0.3130    -3.4080    -3.0910 c3         1 AI7      -0.075400
     12 C13         -1.8240    -3.3880    -3.2850 c3         1 AI7      -0.074400
     13 C14         -6.8590    -4.4170    -8.4680 ca         1 AI7      -0.105600
     14 O15         -6.0650    -4.9100   -10.6400 o          1 AI7      -0.719500
     15 O16         -4.0490    -4.0440    -6.2210 os         1 AI7      -0.358100
     16 O17         -8.2670    -4.7540   -10.3340 o          1 AI7      -0.719500
     17 H1          -4.7250    -4.5160    -8.6130 ha         1 AI7       0.140000
     18 H2          -8.5510    -3.7570    -5.6070 ha         1 AI7       0.082000
     19 H3          -8.9480    -4.2470    -7.9950 ha         1 AI7       0.127000
     20 H41         -0.2630    -2.0270    -1.4420 hc         1 AI7       0.035700
     21 H42         -0.3580    -3.7080    -0.9600 hc         1 AI7       0.035700
     22 H61         -1.8470    -4.7330    -4.9670 hc         1 AI7       0.052200
     23 H62         -1.7960    -3.0310    -5.4070 hc         1 AI7       0.052200
     24 H7          -6.2850    -3.6470    -4.7060 ha         1 AI7       0.086000
     25 H81         -4.1530    -2.7580    -4.5990 h1         1 AI7       0.023200
     26 H82         -4.1990    -4.4800    -4.1990 h1         1 AI7       0.023200
     27 H91          1.7190    -1.6530     0.1700 hc         1 AI7       0.028367
     28 H92          3.1290    -2.7010     0.0510 hc         1 AI7       0.028367
     29 H93          1.6090    -3.3370     0.6740 hc         1 AI7       0.028367
     30 H101         2.0010    -4.0610    -1.7100 hc         1 AI7       0.036700
     31 H102         2.0970    -2.3860    -2.2020 hc         1 AI7       0.036700
     32 H121         0.1530    -2.7230    -3.8070 hc         1 AI7       0.038200
     33 H122         0.0700    -4.4060    -3.3300 hc         1 AI7       0.038200
     34 H131        -2.2110    -2.3950    -3.0310 hc         1 AI7       0.035200
     35 H132        -2.2880    -4.0860    -2.5800 hc         1 AI7       0.035200
     36 C5          -7.0830    -4.7210    -9.9460 c          1 AI7       0.712600
@<TRIPOS>BOND
     1     1    10 ar  
     2     1    13 ar  
     3     1    17 1   
     4     2     3 ar  
     5     2     6 ar  
     6     2    18 1   
     7     3    13 ar  
     8     3    19 1   
     9     4     9 1   
    10     4    11 1   
    11     4    20 1   
    12     4    21 1   
    13     5     7 1   
    14     5    12 1   
    15     5    22 1   
    16     5    23 1   
    17     6    10 ar  
    18     6    24 1   
    19     7    15 1   
    20     7    25 1   
    21     7    26 1   
    22     8     9 1   
    23     8    27 1   
    24     8    28 1   
    25     8    29 1   
    26     9    30 1   
    27     9    31 1   
    28    10    15 1   
    29    11    12 1   
    30    11    32 1   
    31    11    33 1   
    32    12    34 1   
    33    12    35 1   
    34    13    36 1   
    35    14    36 1   
    36    16    36 1   
@<TRIPOS>SUBSTRUCTURE
     1 AI7         1 TEMP              0 ****  ****    0 ROOT
