@<TRIPOS>MOLECULE
AIA
   41    42     1     0     0
SMALL
No Charge or Current Charge


@<TRIPOS>ATOM
      1 C2           1.2810    -1.4100     1.1290 c5         1 AIA       0.200800
      2 C3           2.4820     0.4490     0.0340 c5         1 AIA       0.110700
      3 C4           0.1990     0.8660     1.0310 c          1 AIA       0.567100
      4 C5           2.8190    -1.6020     1.2340 c5         1 AIA      -0.090400
      5 C6           0.6330    -2.4310     0.2740 c1         1 AIA      -0.166100
      6 C7           3.3160    -0.8630    -0.0280 c5         1 AIA      -0.080400
      7 C8           2.3570     1.1320    -1.3620 c3         1 AIA       0.138800
      8 C9          -1.2480     0.3270     1.3690 c3         1 AIA       0.103500
      9 N1           1.1790    -0.0400     0.5650 n          1 AIA      -0.409800
     10 O10          0.4530     2.0650     1.1100 o          1 AIA      -0.619100
     11 C11          0.0600    -3.2460    -0.4140 c1         1 AIA      -0.218000
     12 N12          3.6620     1.5850    -1.9070 n8         1 AIA      -1.002200
     13 C13         -2.0360     0.0100     0.0600 c5         1 AIA      -0.058700
     14 N14         -2.0570     1.2010     2.2920 n8         1 AIA      -0.983200
     15 C16         -3.4020    -0.7040     0.2440 c5         1 AIA      -0.071400
     16 C17         -2.5000     1.2310    -0.7790 c5         1 AIA      -0.071400
     17 C18         -3.9470    -0.7290    -1.2130 c5         1 AIA      -0.079400
     18 C19         -3.3460     0.5470    -1.8920 c5         1 AIA      -0.079400
     19 H2           0.8260    -1.4870     2.1270 h1         1 AIA       0.075700
     20 H3           2.9340     1.1590     0.7410 h1         1 AIA       0.066700
     21 H51          3.1210    -2.6550     1.2630 hc         1 AIA       0.058200
     22 H52          3.2090    -1.1290     2.1440 hc         1 AIA       0.058200
     23 H71          3.1030    -1.4400    -0.9370 hc         1 AIA       0.063200
     24 H72          4.3950    -0.6740    -0.0080 hc         1 AIA       0.063200
     25 H81          1.6910     2.0020    -1.2820 h1         1 AIA       0.044200
     26 H82          1.9030     0.4230    -2.0690 h1         1 AIA       0.044200
     27 H9          -1.1180    -0.6270     1.8930 h1         1 AIA       0.063700
     28 H11         -0.4480    -3.9590    -1.0330 ha         1 AIA       0.257000
     29 H121         3.5040     2.0630    -2.8030 hn         1 AIA       0.395500
     30 H122         4.0410     2.3270    -1.3050 hn         1 AIA       0.395500
     31 H13         -1.3750    -0.6190    -0.5470 hc         1 AIA       0.054700
     32 H141        -1.5250     1.3570     3.1570 hn         1 AIA       0.407000
     33 H142        -2.1010     2.1410     1.8820 hn         1 AIA       0.407000
     34 H161        -3.2950    -1.7110     0.6630 hc         1 AIA       0.045700
     35 H162        -4.0730    -0.1460     0.9070 hc         1 AIA       0.045700
     36 H171        -3.1100     1.9280    -0.1930 hc         1 AIA       0.045700
     37 H172        -1.6600     1.8010    -1.1930 hc         1 AIA       0.045700
     38 H181        -3.6210    -1.6340    -1.7390 hc         1 AIA       0.042450
     39 H182        -5.0430    -0.7300    -1.2330 hc         1 AIA       0.042450
     40 H191        -2.7170     0.2680    -2.7460 hc         1 AIA       0.042450
     41 H192        -4.1240     1.2160    -2.2760 hc         1 AIA       0.042450
@<TRIPOS>BOND
     1     1     4 1   
     2     1     5 1   
     3     1     9 1   
     4     1    19 1   
     5     2     6 1   
     6     2     7 1   
     7     2     9 1   
     8     2    20 1   
     9     3     8 1   
    10     3     9 1   
    11     3    10 2   
    12     4     6 1   
    13     4    21 1   
    14     4    22 1   
    15     5    11 3   
    16     6    23 1   
    17     6    24 1   
    18     7    12 1   
    19     7    25 1   
    20     7    26 1   
    21     8    13 1   
    22     8    14 1   
    23     8    27 1   
    24    11    28 1   
    25    12    29 1   
    26    12    30 1   
    27    13    15 1   
    28    13    16 1   
    29    13    31 1   
    30    14    32 1   
    31    14    33 1   
    32    15    17 1   
    33    15    34 1   
    34    15    35 1   
    35    16    18 1   
    36    16    36 1   
    37    16    37 1   
    38    17    18 1   
    39    17    38 1   
    40    17    39 1   
    41    18    40 1   
    42    18    41 1   
@<TRIPOS>SUBSTRUCTURE
     1 AIA         1 TEMP              0 ****  ****    0 ROOT
