@<TRIPOS>MOLECULE
AIA
   41    42     1     0     0
SMALL
bcc


@<TRIPOS>ATOM
      1 C2           1.1820    -1.3700     0.8600 c5         1 AIA       0.200800
      2 C3           2.4250     0.5690     0.1470 c5         1 AIA       0.110700
      3 C4           0.0840     0.8880     0.8210 c          1 AIA       0.634100
      4 C5           2.6160    -1.5110     1.3780 c5         1 AIA      -0.090400
      5 C6           0.9590    -2.2020    -0.3290 c1         1 AIA      -0.166100
      6 C7           3.3940    -0.5830     0.4530 c5         1 AIA      -0.080400
      7 C8           2.4390     0.9820    -1.3210 c3         1 AIA       0.138800
      8 C9          -1.2660     0.2930     1.2430 c3         1 AIA       0.103500
      9 N1           1.1110     0.0520     0.5540 n          1 AIA      -0.476800
     10 O10          0.2110     2.0990     0.6920 o          1 AIA      -0.619100
     11 C11          0.7970    -2.8970    -1.2960 c1         1 AIA      -0.130500
     12 N12          3.7640     1.4560    -1.6840 n8         1 AIA      -0.891800
     13 C13         -1.9740    -0.2820     0.0050 c5         1 AIA      -0.058700
     14 N14         -2.1050     1.2440     1.9350 n8         1 AIA      -0.872800
     15 C16         -3.3440    -0.9210     0.3440 c5         1 AIA      -0.071400
     16 C17         -2.2630     0.7580    -1.0980 c5         1 AIA      -0.071400
     17 C18         -4.3810    -0.1180    -0.4440 c5         1 AIA      -0.079400
     18 C19         -3.6120     0.3390    -1.6790 c5         1 AIA      -0.079400
     19 H2           0.4550    -1.6460     1.6230 h1         1 AIA       0.075700
     20 H3           2.6620     1.4390     0.7670 h1         1 AIA       0.066700
     21 H51          2.9690    -2.5410     1.3630 hc         1 AIA       0.058200
     22 H52          2.6460    -1.1560     2.4090 hc         1 AIA       0.058200
     23 H71          3.6650    -1.1020    -0.4680 hc         1 AIA       0.063200
     24 H72          4.3180    -0.2270     0.9050 hc         1 AIA       0.063200
     25 H81          1.6430     1.7140    -1.5000 h1         1 AIA       0.044200
     26 H82          2.2050     0.1030    -1.9270 h1         1 AIA       0.044200
     27 H9          -1.1030    -0.5360     1.9380 h1         1 AIA       0.063700
     28 H11          0.6490    -3.5020    -2.1610 ha         1 AIA       0.169500
     29 H121         3.7990     1.6240    -2.6810 hn         1 AIA       0.340300
     30 H122         3.9320     2.3560    -1.2500 hn         1 AIA       0.340300
     31 H13         -1.3270    -1.0530    -0.4180 hc         1 AIA       0.054700
     32 H141        -1.6750     1.4990     2.8150 hn         1 AIA       0.351800
     33 H142        -2.1680     2.1050     1.4060 hn         1 AIA       0.351800
     34 H161        -3.3520    -1.9630     0.0180 hc         1 AIA       0.045700
     35 H162        -3.5450    -0.9180     1.4150 hc         1 AIA       0.045700
     36 H171        -2.3540     1.7660    -0.6860 hc         1 AIA       0.045700
     37 H172        -1.4680     0.7980    -1.8440 hc         1 AIA       0.045700
     38 H181        -5.2790    -0.6930    -0.6780 hc         1 AIA       0.042450
     39 H182        -4.6930     0.7560     0.1340 hc         1 AIA       0.042450
     40 H191        -3.4850    -0.4970    -2.3730 hc         1 AIA       0.042450
     41 H192        -4.1080     1.1420    -2.2280 hc         1 AIA       0.042450
@<TRIPOS>BOND
     1     1     4 1   
     2     1     5 1   
     3     1     9 1   
     4     1    19 1   
     5     2     6 1   
     6     2     7 1   
     7     2     9 1   
     8     2    20 1   
     9     3     8 1   
    10     3     9 1   
    11     3    10 2   
    12     4     6 1   
    13     4    21 1   
    14     4    22 1   
    15     5    11 3   
    16     6    23 1   
    17     6    24 1   
    18     7    12 1   
    19     7    25 1   
    20     7    26 1   
    21     8    13 1   
    22     8    14 1   
    23     8    27 1   
    24    11    28 1   
    25    12    29 1   
    26    12    30 1   
    27    13    15 1   
    28    13    16 1   
    29    13    31 1   
    30    14    32 1   
    31    14    33 1   
    32    15    17 1   
    33    15    34 1   
    34    15    35 1   
    35    16    18 1   
    36    16    36 1   
    37    16    37 1   
    38    17    18 1   
    39    17    38 1   
    40    17    39 1   
    41    18    40 1   
    42    18    41 1   
@<TRIPOS>SUBSTRUCTURE
     1 AIA         1 TEMP              0 ****  ****    0 ROOT
