@<TRIPOS>MOLECULE
AIB
   15    14     1     0     0
SMALL
No Charge or Current Charge


@<TRIPOS>ATOM
      1 N           48.1200     2.5570    -1.9220 n8         1 AIB      -0.877800
      2 CA          46.9420     3.2630    -2.5500 c3         1 AIB       0.027200
      3 C           45.8090     2.2960    -3.1650 c          1 AIB       0.941600
      4 O           44.6200     2.5420    -2.9750 o          1 AIB      -0.836800
      5 OXT         46.1670     1.2620    -3.7260 o          1 AIB      -0.836800
      6 CB1         47.5000     4.1400    -3.7010 c3         1 AIB      -0.070100
      7 CB2         46.3470     4.1880    -1.4490 c3         1 AIB      -0.070100
      8 H           48.9230     3.1910    -1.9070 hn         1 AIB       0.319800
      9 H2          48.4050     1.7900    -2.5410 hn         1 AIB       0.319800
     10 HB11        46.6960     4.7230    -4.1670 hc         1 AIB       0.014033
     11 HB12        48.2590     4.8440    -3.3360 hc         1 AIB       0.014033
     12 HB13        47.9580     3.5190    -4.4810 hc         1 AIB       0.014033
     13 HB21        45.5560     4.8290    -1.8580 hc         1 AIB       0.014033
     14 HB22        45.9170     3.5960    -0.6320 hc         1 AIB       0.014033
     15 HB23        47.1160     4.8450    -1.0240 hc         1 AIB       0.014033
@<TRIPOS>BOND
     1     1     2 1   
     2     1     8 1   
     3     1     9 1   
     4     2     3 1   
     5     2     6 1   
     6     2     7 1   
     7     3     4 1   
     8     3     5 1   
     9     6    10 1   
    10     6    11 1   
    11     6    12 1   
    12     7    13 1   
    13     7    14 1   
    14     7    15 1   
@<TRIPOS>SUBSTRUCTURE
     1 AIB         1 TEMP              0 ****  ****    0 ROOT
