@<TRIPOS>MOLECULE
AIB
   15    14     1     0     0
SMALL
bcc


@<TRIPOS>ATOM
      1 N           48.0560     2.5090    -1.9500 n8         1 AIB      -0.877800
      2 CA          46.9610     3.2790    -2.5390 c3         1 AIB       0.027200
      3 C           45.8970     2.3010    -3.1160 c          1 AIB       0.941600
      4 O           44.7280     2.7260    -3.1960 o          1 AIB      -0.836800
      5 OXT         46.3110     1.1900    -3.5080 o          1 AIB      -0.836800
      6 CB1         47.4390     4.1560    -3.7080 c3         1 AIB      -0.070100
      7 CB2         46.3720     4.1730    -1.4520 c3         1 AIB      -0.070100
      8 H           48.8640     3.1110    -1.8330 hn         1 AIB       0.319800
      9 H2          48.3260     1.7890    -2.6090 hn         1 AIB       0.319800
     10 HB11        46.6200     4.7260    -4.1500 hc         1 AIB       0.014033
     11 HB12        48.1970     4.8680    -3.3710 hc         1 AIB       0.014033
     12 HB13        47.8840     3.5450    -4.4970 hc         1 AIB       0.014033
     13 HB21        45.5690     4.7980    -1.8390 hc         1 AIB       0.014033
     14 HB22        45.9720     3.5800    -0.6270 hc         1 AIB       0.014033
     15 HB23        47.1390     4.8340    -1.0410 hc         1 AIB       0.014033
@<TRIPOS>BOND
     1     1     2 1   
     2     1     8 1   
     3     1     9 1   
     4     2     3 1   
     5     2     6 1   
     6     2     7 1   
     7     3     4 1   
     8     3     5 1   
     9     6    10 1   
    10     6    11 1   
    11     6    12 1   
    12     7    13 1   
    13     7    14 1   
    14     7    15 1   
@<TRIPOS>SUBSTRUCTURE
     1 AIB         1 TEMP              0 ****  ****    0 ROOT
