@<TRIPOS>MOLECULE
AIE
   31    32     1     0     0
SMALL
abcg2


@<TRIPOS>ATOM
      1 C10        -10.8690    15.1960    66.6350 ca         1 AIE      -0.092500
      2 C11        -10.1080    16.2220    66.0900 ca         1 AIE      -0.121000
      3 C15        -13.3040    14.6860    71.0340 ca         1 AIE      -0.039000
      4 C16        -14.6100    15.0180    70.6990 ca         1 AIE      -0.135000
      5 C17        -14.8750    16.1920    70.0170 ca         1 AIE      -0.037000
      6 C13         -9.1870    16.6780    68.2670 ca         1 AIE      -0.132500
      7 C12         -9.2580    16.9530    66.9090 ca         1 AIE      -0.092500
      8 C01        -12.9980    19.1900    68.5040 c3         1 AIE      -0.197100
      9 C03        -13.8340    17.0520    69.6640 ca         1 AIE      -0.187600
     10 C04        -12.5280    16.7060    69.9920 ca         1 AIE      -0.036000
     11 C05        -12.2550    15.5200    70.6640 ca         1 AIE      -0.164600
     12 C06        -10.8660    15.1540    71.0760 c          1 AIE       0.623700
     13 C08         -9.9560    15.6550    68.8120 ca         1 AIE      -0.035000
     14 C09        -10.7850    14.9000    67.9870 ca         1 AIE      -0.132500
     15 N07         -9.8610    15.3890    70.1940 ns         1 AIE      -0.168000
     16 O14        -10.6490    14.6910    72.1820 o          1 AIE      -0.580100
     17 O18        -15.2930    18.6040    68.6710 o          1 AIE      -0.522100
     18 H1         -11.5240    14.6110    66.0020 ha         1 AIE       0.118000
     19 H2         -10.1730    16.4460    65.0340 ha         1 AIE       0.118000
     20 H3         -13.1020    13.7680    71.5710 ha         1 AIE       0.132000
     21 H4         -15.4210    14.3570    70.9740 ha         1 AIE       0.123000
     22 H5         -15.8950    16.4450    69.7570 ha         1 AIE       0.136000
     23 H6          -8.5410    17.2630    68.9100 ha         1 AIE       0.122500
     24 H7          -8.6560    17.7520    66.4950 ha         1 AIE       0.118000
     25 H8         -13.3660    20.0510    67.9510 hc         1 AIE       0.063367
     26 H9         -12.4410    19.5450    69.3740 hc         1 AIE       0.063367
     27 H10        -12.2930    18.6420    67.8760 hc         1 AIE       0.063367
     28 H11        -11.7160    17.3720    69.7350 ha         1 AIE       0.123000
     29 H12        -11.3640    14.0820    68.3970 ha         1 AIE       0.122500
     30 H13         -8.9290    15.2840    70.5720 hn         1 AIE       0.160000
     31 C02        -14.1440    18.3120    68.9250 c          1 AIE       0.585700
@<TRIPOS>BOND
     1     1     2 ar  
     2     1    14 ar  
     3     1    18 1   
     4     2     7 ar  
     5     2    19 1   
     6     3     4 ar  
     7     3    11 ar  
     8     3    20 1   
     9     4     5 ar  
    10     4    21 1   
    11     5     9 ar  
    12     5    22 1   
    13     6     7 ar  
    14     6    13 ar  
    15     6    23 1   
    16     7    24 1   
    17     8    25 1   
    18     8    26 1   
    19     8    27 1   
    20     8    31 1   
    21     9    10 ar  
    22     9    31 1   
    23    10    11 ar  
    24    10    28 1   
    25    11    12 1   
    26    12    15 1   
    27    12    16 2   
    28    13    14 ar  
    29    13    15 1   
    30    14    29 1   
    31    15    30 1   
    32    17    31 2   
@<TRIPOS>SUBSTRUCTURE
     1 AIE         1 TEMP              0 ****  ****    0 ROOT
