@<TRIPOS>MOLECULE
AIE
   31    32     1     0     0
SMALL
No Charge or Current Charge


@<TRIPOS>ATOM
      1 C10        -10.8060    15.4900    66.5310 ca         1 AIE      -0.092500
      2 C11         -9.8240    16.3590    66.0260 ca         1 AIE      -0.121000
      3 C15        -13.3890    14.6740    71.2380 ca         1 AIE      -0.039000
      4 C16        -14.7200    15.0510    71.0020 ca         1 AIE      -0.135000
      5 C17        -15.0090    16.2050    70.2580 ca         1 AIE      -0.037000
      6 C13         -8.8940    16.6040    68.2620 ca         1 AIE      -0.132500
      7 C12         -8.8650    16.9120    66.8910 ca         1 AIE      -0.092500
      8 C01        -13.1770    19.0420    68.2690 c3         1 AIE      -0.197100
      9 C03        -13.9650    17.0080    69.7490 ca         1 AIE      -0.187600
     10 C04        -12.6260    16.6270    70.0040 ca         1 AIE      -0.036000
     11 C05        -12.3260    15.4460    70.7260 ca         1 AIE      -0.164600
     12 C06        -10.8980    15.0110    71.0010 c          1 AIE       0.623700
     13 C08         -9.8860    15.7500    68.7790 ca         1 AIE      -0.035000
     14 C09        -10.8340    15.1810    67.9020 ca         1 AIE      -0.132500
     15 N07         -9.8840    15.4640    70.1680 ns         1 AIE      -0.168000
     16 O14        -10.6230    14.3520    71.9980 o          1 AIE      -0.580100
     17 O18        -15.4580    18.6280    68.8250 o          1 AIE      -0.522100
     18 H1         -11.5430    15.0540    65.8600 ha         1 AIE       0.118000
     19 H2          -9.8030    16.5970    64.9650 ha         1 AIE       0.118000
     20 H3         -13.1870    13.7720    71.8120 ha         1 AIE       0.132000
     21 H4         -15.5320    14.4430    71.3940 ha         1 AIE       0.123000
     22 H5         -16.0490    16.4720    70.0820 ha         1 AIE       0.136000
     23 H6          -8.1490    17.0380    68.9250 ha         1 AIE       0.122500
     24 H7          -8.1010    17.5800    66.4990 ha         1 AIE       0.118000
     25 H8         -13.5560    19.8710    67.6590 hc         1 AIE       0.063367
     26 H9         -12.4840    19.4040    69.0360 hc         1 AIE       0.063367
     27 H10        -12.5550    18.3580    67.6810 hc         1 AIE       0.063367
     28 H11        -11.8120    17.2540    69.6540 ha         1 AIE       0.123000
     29 H12        -11.5920    14.4950    68.2730 ha         1 AIE       0.122500
     30 H13         -8.9560    15.3430    70.5530 hn         1 AIE       0.160000
     31 C02        -14.2990    18.2510    68.9460 c          1 AIE       0.585700
@<TRIPOS>BOND
     1     1     2 ar  
     2     1    14 ar  
     3     1    18 1   
     4     2     7 ar  
     5     2    19 1   
     6     3     4 ar  
     7     3    11 ar  
     8     3    20 1   
     9     4     5 ar  
    10     4    21 1   
    11     5     9 ar  
    12     5    22 1   
    13     6     7 ar  
    14     6    13 ar  
    15     6    23 1   
    16     7    24 1   
    17     8    25 1   
    18     8    26 1   
    19     8    27 1   
    20     8    31 1   
    21     9    10 ar  
    22     9    31 1   
    23    10    11 ar  
    24    10    28 1   
    25    11    12 1   
    26    12    15 1   
    27    12    16 2   
    28    13    14 ar  
    29    13    15 1   
    30    14    29 1   
    31    15    30 1   
    32    17    31 2   
@<TRIPOS>SUBSTRUCTURE
     1 AIE         1 TEMP              0 ****  ****    0 ROOT
