@<TRIPOS>MOLECULE
AIG
   43    43     1     0     0
SMALL
abcg2


@<TRIPOS>ATOM
      1 C1          17.9950    64.4570    46.1710 c6         1 AIG       0.399300
      2 O1          17.5700    65.5310    45.4280 os         1 AIG      -0.425000
      3 C2          17.1000    63.2580    45.8920 c6         1 AIG       0.157300
      4 O2          15.7860    63.5450    46.2900 oh         1 AIG      -0.707000
      5 C3          17.6350    62.0500    46.6650 c6         1 AIG       0.120500
      6 C4          19.1080    61.7980    46.3350 c6         1 AIG       0.108300
      7 O4          19.1910    61.3370    45.0050 oh         1 AIG      -0.707000
      8 C5          19.8820    63.1000    46.5580 c6         1 AIG       0.158300
      9 O5          19.3160    64.1500    45.8030 os         1 AIG      -0.465000
     10 C6          21.3450    62.9880    46.1920 c3         1 AIG       0.169600
     11 O6          22.0050    64.1690    46.5840 oh         1 AIG      -0.705000
     12 N3          16.7330    60.9350    46.4510 n8         1 AIG      -1.008200
     13 C7          18.1590    66.7760    45.7680 c3         1 AIG       0.167600
     14 C8          17.3300    67.9180    45.2130 c3         1 AIG      -0.075400
     15 C9          17.3760    68.1070    43.6970 c3         1 AIG      -0.062400
     16 C10         16.7410    67.0140    42.8380 c3         1 AIG      -0.068400
     17 C11         15.2750    66.7380    43.1450 c3         1 AIG      -0.075400
     18 C12         14.6490    65.7610    42.1600 c3         1 AIG      -0.086100
     19 H1          17.9610    64.6910    47.2550 h2         1 AIG       0.020700
     20 H2          17.1480    63.0450    44.8110 h1         1 AIG       0.072700
     21 HO2         15.3670    62.6800    46.4120 ho         1 AIG       0.526000
     22 H3          17.5900    62.3010    47.7320 h1         1 AIG       0.064700
     23 H4          19.4940    61.0470    47.0380 h1         1 AIG       0.031700
     24 HO4         19.9790    60.7970    44.9040 ho         1 AIG       0.504000
     25 H5          19.8140    63.3300    47.6350 h1         1 AIG       0.046700
     26 H61         21.7530    62.1050    46.7020 h1         1 AIG       0.025700
     27 H62         21.4410    62.8120    45.1130 h1         1 AIG       0.025700
     28 HO6         22.9190    64.1100    46.2930 ho         1 AIG       0.505000
     29 HN31        16.8890    60.2150    47.1440 hn         1 AIG       0.411000
     30 HN32        16.9140    60.5150    45.5470 hn         1 AIG       0.411000
     31 H1'1        18.2180    66.8670    46.8600 h1         1 AIG       0.030200
     32 H1'2        19.1830    66.8410    45.3830 h1         1 AIG       0.030200
     33 H2'1        16.2990    67.8210    45.5650 hc         1 AIG       0.045200
     34 H2'2        17.7150    68.8310    45.6750 hc         1 AIG       0.045200
     35 H3'1        16.8840    69.0560    43.4650 hc         1 AIG       0.031700
     36 H3'2        18.4200    68.2330    43.3940 hc         1 AIG       0.031700
     37 H4'1        16.8280    67.3220    41.7900 hc         1 AIG       0.040200
     38 H4'2        17.3100    66.0850    42.9230 hc         1 AIG       0.040200
     39 H5'1        15.1780    66.3380    44.1570 hc         1 AIG       0.041200
     40 H5'2        14.7150    67.6790    43.1330 hc         1 AIG       0.041200
     41 H6'1        13.6020    65.5670    42.3960 hc         1 AIG       0.027367
     42 H6'2        14.6920    66.1450    41.1390 hc         1 AIG       0.027367
     43 H6'3        15.1710    64.8020    42.1710 hc         1 AIG       0.027367
@<TRIPOS>BOND
     1     1     2 1   
     2     1     3 1   
     3     1     9 1   
     4     1    19 1   
     5     2    13 1   
     6     3     4 1   
     7     3     5 1   
     8     3    20 1   
     9     4    21 1   
    10     5     6 1   
    11     5    12 1   
    12     5    22 1   
    13     6     7 1   
    14     6     8 1   
    15     6    23 1   
    16     7    24 1   
    17     8     9 1   
    18     8    10 1   
    19     8    25 1   
    20    10    11 1   
    21    10    26 1   
    22    10    27 1   
    23    11    28 1   
    24    12    29 1   
    25    12    30 1   
    26    13    14 1   
    27    13    31 1   
    28    13    32 1   
    29    14    15 1   
    30    14    33 1   
    31    14    34 1   
    32    15    16 1   
    33    15    35 1   
    34    15    36 1   
    35    16    17 1   
    36    16    37 1   
    37    16    38 1   
    38    17    18 1   
    39    17    39 1   
    40    17    40 1   
    41    18    41 1   
    42    18    42 1   
    43    18    43 1   
@<TRIPOS>SUBSTRUCTURE
     1 AIG         1 TEMP              0 ****  ****    0 ROOT
