@<TRIPOS>MOLECULE
AIG
   43    43     1     0     0
SMALL
No Charge or Current Charge


@<TRIPOS>ATOM
      1 C1          17.8120    64.5290    46.4170 c6         1 AIG       0.399300
      2 O1          17.2370    65.7110    45.8310 os         1 AIG      -0.425000
      3 C2          16.8870    63.2840    46.1980 c6         1 AIG       0.157300
      4 O2          15.5690    63.3700    46.7710 oh         1 AIG      -0.707000
      5 C3          17.5650    62.0280    46.8090 c6         1 AIG       0.120500
      6 C4          18.9740    61.8100    46.1710 c6         1 AIG       0.108300
      7 O4          18.8270    61.4330    44.7810 oh         1 AIG      -0.707000
      8 C5          19.7970    63.1360    46.3680 c6         1 AIG       0.158300
      9 O5          19.0950    64.2760    45.7990 os         1 AIG      -0.465000
     10 C6          21.2340    63.0670    45.7530 c3         1 AIG       0.169600
     11 O6          22.0150    64.2540    45.9970 oh         1 AIG      -0.705000
     12 N3          16.6540    60.8510    46.6680 n8         1 AIG      -1.008200
     13 C7          17.9260    66.9450    46.0800 c3         1 AIG       0.167600
     14 C8          17.1800    68.0830    45.3440 c3         1 AIG      -0.075400
     15 C9          17.4620    68.1860    43.8200 c3         1 AIG      -0.062400
     16 C10         17.0470    66.9700    42.9530 c3         1 AIG      -0.068400
     17 C11         15.5320    66.6560    42.9700 c3         1 AIG      -0.075400
     18 C12         15.1550    65.4730    42.0580 c3         1 AIG      -0.086100
     19 H1          17.9500    64.6940    47.4960 h2         1 AIG       0.020700
     20 H2          16.8000    63.1340    45.1110 h1         1 AIG       0.072700
     21 HO2         15.3760    62.4090    46.9370 ho         1 AIG       0.526000
     22 H3          17.6990    62.2070    47.8880 h1         1 AIG       0.064700
     23 H4          19.4800    61.0020    46.7210 h1         1 AIG       0.031700
     24 HO4         19.6450    60.9540    44.5150 ho         1 AIG       0.504000
     25 H5          19.9160    63.3110    47.4480 h1         1 AIG       0.046700
     26 H61         21.7450    62.1920    46.1780 h1         1 AIG       0.025700
     27 H62         21.1420    62.8980    44.6710 h1         1 AIG       0.025700
     28 HO6         22.8610    64.1490    45.5030 ho         1 AIG       0.505000
     29 HN31        17.0320    60.0720    47.2230 hn         1 AIG       0.411000
     30 HN32        16.7700    60.5050    45.7050 hn         1 AIG       0.411000
     31 H1'1        17.9320    67.1590    47.1570 h1         1 AIG       0.030200
     32 H1'2        18.9670    66.9020    45.7340 h1         1 AIG       0.030200
     33 H2'1        16.1030    67.9980    45.5280 hc         1 AIG       0.045200
     34 H2'2        17.4880    69.0300    45.8020 hc         1 AIG       0.045200
     35 H3'1        16.9530    69.0780    43.4340 hc         1 AIG       0.031700
     36 H3'2        18.5350    68.3630    43.6760 hc         1 AIG       0.031700
     37 H4'1        17.3490    67.1710    41.9180 hc         1 AIG       0.040200
     38 H4'2        17.6110    66.0830    43.2660 hc         1 AIG       0.040200
     39 H5'1        15.2120    66.4220    43.9920 hc         1 AIG       0.041200
     40 H5'2        14.9730    67.5440    42.6540 hc         1 AIG       0.041200
     41 H6'1        14.0750    65.2870    42.1010 hc         1 AIG       0.027367
     42 H6'2        15.4250    65.6830    41.0160 hc         1 AIG       0.027367
     43 H6'3        15.6730    64.5590    42.3740 hc         1 AIG       0.027367
@<TRIPOS>BOND
     1     1     2 1   
     2     1     3 1   
     3     1     9 1   
     4     1    19 1   
     5     2    13 1   
     6     3     4 1   
     7     3     5 1   
     8     3    20 1   
     9     4    21 1   
    10     5     6 1   
    11     5    12 1   
    12     5    22 1   
    13     6     7 1   
    14     6     8 1   
    15     6    23 1   
    16     7    24 1   
    17     8     9 1   
    18     8    10 1   
    19     8    25 1   
    20    10    11 1   
    21    10    26 1   
    22    10    27 1   
    23    11    28 1   
    24    12    29 1   
    25    12    30 1   
    26    13    14 1   
    27    13    31 1   
    28    13    32 1   
    29    14    15 1   
    30    14    33 1   
    31    14    34 1   
    32    15    16 1   
    33    15    35 1   
    34    15    36 1   
    35    16    17 1   
    36    16    37 1   
    37    16    38 1   
    38    17    18 1   
    39    17    39 1   
    40    17    40 1   
    41    18    41 1   
    42    18    42 1   
    43    18    43 1   
@<TRIPOS>SUBSTRUCTURE
     1 AIG         1 TEMP              0 ****  ****    0 ROOT
