@<TRIPOS>MOLECULE
AIH
   65    69     1     0     0
SMALL
abcg2


@<TRIPOS>ATOM
      1 C1          -2.8440     0.0560     1.5390 c6         1 AIH       0.087600
      2 C2          -1.9800    -0.9380     0.7410 c6         1 AIH       0.236600
      3 O3          -2.4660    -1.0940    -0.5740 os         1 AIH      -0.336100
      4 C4          -3.7080    -1.6210    -0.7320 ca         1 AIH       0.084100
      5 C5          -3.9670    -2.2940    -1.9190 ca         1 AIH      -0.082000
      6 C6          -5.2150    -2.8330    -2.1800 ca         1 AIH      -0.182000
      7 C7          -6.2310    -2.7100    -1.2350 ca         1 AIH       0.123100
      8 O8          -7.4680    -3.2180    -1.4210 oh         1 AIH      -0.532100
      9 C9          -5.9810    -2.0360    -0.0480 ca         1 AIH      -0.109000
     10 C10         -4.7270    -1.4860     0.2090 ca         1 AIH      -0.128000
     11 S11         -4.5160    -0.6400     1.7360 ss         1 AIH      -0.145000
     12 C12         -2.8280     1.4520     0.9840 ca         1 AIH      -0.113300
     13 C13         -3.5840     1.8360    -0.1180 ca         1 AIH      -0.049500
     14 C14         -3.4900     3.1170    -0.6410 ca         1 AIH      -0.178500
     15 C15         -2.6310     4.0480    -0.0620 ca         1 AIH       0.142100
     16 O16         -2.5040     5.3080    -0.5270 oh         1 AIH      -0.534100
     17 C17         -1.8750     3.6810     1.0470 ca         1 AIH      -0.178500
     18 C18         -1.9790     2.3970     1.5540 ca         1 AIH      -0.049500
     19 C19         -0.5530    -0.4760     0.6560 ca         1 AIH      -0.131300
     20 C20          0.3500    -0.8630     1.6420 ca         1 AIH      -0.048000
     21 C21          1.6620    -0.4280     1.6250 ca         1 AIH      -0.179000
     22 C22          2.1070     0.4120     0.6030 ca         1 AIH       0.158100
     23 C23          1.2110     0.8120    -0.3860 ca         1 AIH      -0.179000
     24 C24         -0.1050     0.3710    -0.3480 ca         1 AIH      -0.048000
     25 O25          3.4010     0.7790     0.6500 os         1 AIH      -0.351100
     26 C26          3.9510     1.5070    -0.4370 c3         1 AIH       0.162600
     27 C27          5.4500     1.6230    -0.2710 c3         1 AIH       0.175800
     28 N28          6.1780     0.4080    -0.5510 n3         1 AIH      -0.725600
     29 C29          7.6000     0.6440    -0.7720 c5         1 AIH       0.166300
     30 C30          8.2840    -0.7220    -0.5730 c5         1 AIH      -0.068700
     31 C31          8.9260    -1.2730    -1.8370 c3         1 AIH      -0.082100
     32 C32          7.1670    -1.6280    -0.0210 c5         1 AIH      -0.068700
     33 C33          7.6300    -2.6040     1.0460 c3         1 AIH      -0.082100
     34 C34          6.1170    -0.6350     0.4570 c5         1 AIH       0.166300
     35 H1          -2.4470     0.0730     2.5570 h1         1 AIH       0.093700
     36 H2          -2.0110    -1.8990     1.2700 h1         1 AIH       0.062700
     37 H5          -3.1740    -2.3940    -2.6500 ha         1 AIH       0.129000
     38 H6          -5.3890    -3.3530    -3.1150 ha         1 AIH       0.118000
     39 HO8         -7.5240    -3.6540    -2.2780 ho         1 AIH       0.464000
     40 H9          -6.7770    -1.9310     0.6820 ha         1 AIH       0.139000
     41 H13         -4.2770     1.1460    -0.5820 ha         1 AIH       0.119500
     42 H14         -4.0920     3.3890    -1.5000 ha         1 AIH       0.121500
     43 H16         -3.0800     5.4430    -1.2880 ho         1 AIH       0.464000
     44 H17         -1.2090     4.3980     1.5100 ha         1 AIH       0.121500
     45 H18         -1.3800     2.1260     2.4150 ha         1 AIH       0.119500
     46 H20          0.0280    -1.5260     2.4380 ha         1 AIH       0.120000
     47 H21          2.3540    -0.7490     2.3930 ha         1 AIH       0.123500
     48 H23          1.5130     1.4680    -1.1910 ha         1 AIH       0.123500
     49 H24         -0.7800     0.7080    -1.1240 ha         1 AIH       0.120000
     50 H261         3.5160     2.5120    -0.4730 h1         1 AIH       0.044200
     51 H262         3.7270     1.0100    -1.3870 h1         1 AIH       0.044200
     52 H271         5.6840     2.0330     0.7270 h1         1 AIH       0.040700
     53 H272         5.7710     2.3800    -0.9920 h1         1 AIH       0.040700
     54 H291         8.0050     1.3730    -0.0520 h1         1 AIH       0.038450
     55 H292         7.7680     1.0580    -1.7700 h1         1 AIH       0.038450
     56 H30          9.0580    -0.6170     0.1940 hc         1 AIH       0.054700
     57 H311         9.7500    -0.6440    -2.1780 hc         1 AIH       0.034200
     58 H312         9.3280    -2.2750    -1.6720 hc         1 AIH       0.034200
     59 H313         8.1970    -1.3380    -2.6470 hc         1 AIH       0.034200
     60 H32          6.7340    -2.1940    -0.8540 hc         1 AIH       0.054700
     61 H331         6.8030    -3.2110     1.4190 hc         1 AIH       0.034200
     62 H332         8.3860    -3.2880     0.6570 hc         1 AIH       0.034200
     63 H333         8.0670    -2.0740     1.8950 hc         1 AIH       0.034200
     64 H341         6.3790    -0.2550     1.4620 h1         1 AIH       0.038450
     65 H342         5.1250    -1.0820     0.5250 h1         1 AIH       0.038450
@<TRIPOS>BOND
     1     1     2 1   
     2     1    11 1   
     3     1    12 1   
     4     1    35 1   
     5     2     3 1   
     6     2    19 1   
     7     2    36 1   
     8     3     4 1   
     9     4     5 ar  
    10     4    10 ar  
    11     5     6 ar  
    12     5    37 1   
    13     6     7 ar  
    14     6    38 1   
    15     7     8 1   
    16     7     9 ar  
    17     8    39 1   
    18     9    10 ar  
    19     9    40 1   
    20    10    11 1   
    21    12    13 ar  
    22    12    18 ar  
    23    13    14 ar  
    24    13    41 1   
    25    14    15 ar  
    26    14    42 1   
    27    15    16 1   
    28    15    17 ar  
    29    16    43 1   
    30    17    18 ar  
    31    17    44 1   
    32    18    45 1   
    33    19    20 ar  
    34    19    24 ar  
    35    20    21 ar  
    36    20    46 1   
    37    21    22 ar  
    38    21    47 1   
    39    22    23 ar  
    40    22    25 1   
    41    23    24 ar  
    42    23    48 1   
    43    24    49 1   
    44    25    26 1   
    45    26    27 1   
    46    26    50 1   
    47    26    51 1   
    48    27    28 1   
    49    27    52 1   
    50    27    53 1   
    51    28    29 1   
    52    28    34 1   
    53    29    30 1   
    54    29    54 1   
    55    29    55 1   
    56    30    31 1   
    57    30    32 1   
    58    30    56 1   
    59    31    57 1   
    60    31    58 1   
    61    31    59 1   
    62    32    33 1   
    63    32    34 1   
    64    32    60 1   
    65    33    61 1   
    66    33    62 1   
    67    33    63 1   
    68    34    64 1   
    69    34    65 1   
@<TRIPOS>SUBSTRUCTURE
     1 AIH         1 TEMP              0 ****  ****    0 ROOT
