@<TRIPOS>MOLECULE
AIH
   65    69     1     0     0
SMALL
No Charge or Current Charge


@<TRIPOS>ATOM
      1 C1          -2.9260     0.1830     1.6240 c6         1 AIH       0.087600
      2 C2          -2.0570    -0.8980     0.9390 c6         1 AIH       0.236600
      3 O3          -2.5580    -1.2520    -0.3680 os         1 AIH      -0.336100
      4 C4          -3.8540    -1.6990    -0.5310 ca         1 AIH       0.084100
      5 C5          -4.1440    -2.4290    -1.6980 ca         1 AIH      -0.082000
      6 C6          -5.4410    -2.9170    -1.9340 ca         1 AIH      -0.182000
      7 C7          -6.4600    -2.6680    -1.0010 ca         1 AIH       0.123100
      8 O8          -7.7200    -3.1380    -1.2230 oh         1 AIH      -0.532100
      9 C9          -6.1850    -1.9270     0.1580 ca         1 AIH      -0.109000
     10 C10         -4.8890    -1.4320     0.4030 ca         1 AIH      -0.128000
     11 S11         -4.6350    -0.4500     1.8800 ss         1 AIH      -0.145000
     12 C12         -2.9010     1.5540     0.9210 ca         1 AIH      -0.113300
     13 C13         -3.6530     1.8030    -0.2470 ca         1 AIH      -0.049500
     14 C14         -3.5960     3.0600    -0.8750 ca         1 AIH      -0.178500
     15 C15         -2.7880     4.0760    -0.3420 ca         1 AIH       0.142100
     16 O16         -2.7270     5.2950    -0.9460 oh         1 AIH      -0.534100
     17 C17         -2.0380     3.8370     0.8170 ca         1 AIH      -0.178500
     18 C18         -2.0930     2.5820     1.4480 ca         1 AIH      -0.049500
     19 C19         -0.5850    -0.4780     0.8160 ca         1 AIH      -0.131300
     20 C20          0.3430    -0.8870     1.7930 ca         1 AIH      -0.048000
     21 C21          1.6880    -0.4930     1.7000 ca         1 AIH      -0.179000
     22 C22          2.1240     0.3110     0.6360 ca         1 AIH       0.158100
     23 C23          1.1990     0.7250    -0.3460 ca         1 AIH      -0.179000
     24 C24         -0.1470     0.3310    -0.2540 ca         1 AIH      -0.048000
     25 O25          3.4560     0.6660     0.6000 os         1 AIH      -0.351100
     26 C26          4.0090     1.4740    -0.4590 c3         1 AIH       0.162600
     27 C27          5.5290     1.6700    -0.2160 c3         1 AIH       0.175800
     28 N28          6.4010     0.5160    -0.5740 n3         1 AIH      -0.725600
     29 C29          7.8630     0.7630    -0.4450 c5         1 AIH       0.166300
     30 C30          8.4960    -0.6620    -0.3100 c5         1 AIH      -0.068700
     31 C31          9.6900    -0.9360    -1.2520 c3         1 AIH      -0.082100
     32 C32          7.2770    -1.6130    -0.5100 c5         1 AIH      -0.068700
     33 C33          7.4450    -3.0260     0.0910 c3         1 AIH      -0.082100
     34 C34          6.1620    -0.7600     0.1350 c5         1 AIH       0.166300
     35 H1          -2.5250     0.3260     2.6370 h1         1 AIH       0.093700
     36 H2          -2.1020    -1.8050     1.5590 h1         1 AIH       0.062700
     37 H5          -3.3530    -2.6220    -2.4190 ha         1 AIH       0.129000
     38 H6          -5.6450    -3.4850    -2.8390 ha         1 AIH       0.118000
     39 HO8         -7.7250    -3.6260    -2.0740 ho         1 AIH       0.464000
     40 H9          -6.9840    -1.7280     0.8680 ha         1 AIH       0.139000
     41 H13         -4.2820     1.0280    -0.6770 ha         1 AIH       0.119500
     42 H14         -4.1810     3.2350    -1.7750 ha         1 AIH       0.121500
     43 H16         -3.3120     5.2800    -1.7330 ho         1 AIH       0.464000
     44 H17         -1.4100     4.6230     1.2280 ha         1 AIH       0.121500
     45 H18         -1.4990     2.4090     2.3430 ha         1 AIH       0.119500
     46 H20          0.0220    -1.5070     2.6290 ha         1 AIH       0.120000
     47 H21          2.3990    -0.8120     2.4580 ha         1 AIH       0.123500
     48 H23          1.5020     1.3490    -1.1810 ha         1 AIH       0.123500
     49 H24         -0.8530     0.6610    -1.0140 ha         1 AIH       0.120000
     50 H261         3.5260     2.4600    -0.4680 h1         1 AIH       0.044200
     51 H262         3.8550     1.0050    -1.4400 h1         1 AIH       0.044200
     52 H271         5.6790     1.9430     0.8370 h1         1 AIH       0.040700
     53 H272         5.8400     2.5390    -0.8110 h1         1 AIH       0.040700
     54 H291         8.0940     1.3650     0.4450 h1         1 AIH       0.038450
     55 H292         8.2480     1.3050    -1.3200 h1         1 AIH       0.038450
     56 H30          8.8860    -0.7740     0.7090 hc         1 AIH       0.054700
     57 H311        10.5020    -0.2200    -1.0740 hc         1 AIH       0.034200
     58 H312        10.0940    -1.9430    -1.0980 hc         1 AIH       0.034200
     59 H313         9.3920    -0.8490    -2.3040 hc         1 AIH       0.034200
     60 H32          7.0670    -1.7530    -1.5780 hc         1 AIH       0.054700
     61 H331         6.5310    -3.6180    -0.0410 hc         1 AIH       0.034200
     62 H332         8.2660    -3.5670    -0.3930 hc         1 AIH       0.034200
     63 H333         7.6600    -2.9780     1.1660 hc         1 AIH       0.034200
     64 H341         6.2890    -0.6610     1.2230 h1         1 AIH       0.038450
     65 H342         5.1660    -1.1770    -0.0670 h1         1 AIH       0.038450
@<TRIPOS>BOND
     1     1     2 1   
     2     1    11 1   
     3     1    12 1   
     4     1    35 1   
     5     2     3 1   
     6     2    19 1   
     7     2    36 1   
     8     3     4 1   
     9     4     5 ar  
    10     4    10 ar  
    11     5     6 ar  
    12     5    37 1   
    13     6     7 ar  
    14     6    38 1   
    15     7     8 1   
    16     7     9 ar  
    17     8    39 1   
    18     9    10 ar  
    19     9    40 1   
    20    10    11 1   
    21    12    13 ar  
    22    12    18 ar  
    23    13    14 ar  
    24    13    41 1   
    25    14    15 ar  
    26    14    42 1   
    27    15    16 1   
    28    15    17 ar  
    29    16    43 1   
    30    17    18 ar  
    31    17    44 1   
    32    18    45 1   
    33    19    20 ar  
    34    19    24 ar  
    35    20    21 ar  
    36    20    46 1   
    37    21    22 ar  
    38    21    47 1   
    39    22    23 ar  
    40    22    25 1   
    41    23    24 ar  
    42    23    48 1   
    43    24    49 1   
    44    25    26 1   
    45    26    27 1   
    46    26    50 1   
    47    26    51 1   
    48    27    28 1   
    49    27    52 1   
    50    27    53 1   
    51    28    29 1   
    52    28    34 1   
    53    29    30 1   
    54    29    54 1   
    55    29    55 1   
    56    30    31 1   
    57    30    32 1   
    58    30    56 1   
    59    31    57 1   
    60    31    58 1   
    61    31    59 1   
    62    32    33 1   
    63    32    34 1   
    64    32    60 1   
    65    33    61 1   
    66    33    62 1   
    67    33    63 1   
    68    34    64 1   
    69    34    65 1   
@<TRIPOS>SUBSTRUCTURE
     1 AIH         1 TEMP              0 ****  ****    0 ROOT
