@<TRIPOS>MOLECULE
AIJ
   62    66     1     0     0
SMALL
No Charge or Current Charge


@<TRIPOS>ATOM
      1 C1          -2.2670    -0.1110    -1.5310 c6         1 AIJ       0.088600
      2 C2          -1.8440     1.1400    -0.7270 c6         1 AIJ       0.235600
      3 O3          -2.5960     1.2790     0.4990 os         1 AIJ      -0.334100
      4 C4          -3.9750     1.3320     0.4790 ca         1 AIJ       0.085100
      5 C5          -4.6150     1.8970     1.5970 ca         1 AIJ      -0.087000
      6 C6          -6.0170     1.9850     1.6470 ca         1 AIJ      -0.121000
      7 C7          -6.7880     1.5000     0.5810 ca         1 AIJ       0.125100
      8 O8          -8.1470     1.5880     0.6350 oh         1 AIJ      -0.533100
      9 C9          -6.1600     0.9190    -0.5330 ca         1 AIJ      -0.169000
     10 C10         -4.7570     0.8250    -0.5920 ca         1 AIJ      -0.124000
     11 S11         -4.0350     0.0220    -2.0230 ss         1 AIJ      -0.153000
     12 C12         -1.9440    -1.4490    -0.8380 ca         1 AIJ      -0.113300
     13 C13         -2.7450    -1.9540     0.2090 ca         1 AIJ      -0.049500
     14 C14         -2.4130    -3.1700     0.8340 ca         1 AIJ      -0.179500
     15 C15         -1.2810    -3.8870     0.4210 ca         1 AIJ       0.142100
     16 O16         -0.9540    -5.0640     1.0230 oh         1 AIJ      -0.534100
     17 C17         -0.4800    -3.3920    -0.6170 ca         1 AIJ      -0.179500
     18 C18         -0.8080    -2.1780    -1.2450 ca         1 AIJ      -0.049500
     19 C19         -0.3440     1.1490    -0.3990 ca         1 AIJ      -0.134300
     20 C20          0.5500     1.8430    -1.2370 ca         1 AIJ      -0.048000
     21 C21          1.9270     1.8420    -0.9580 ca         1 AIJ      -0.180500
     22 C22          2.4290     1.1480     0.1540 ca         1 AIJ       0.153100
     23 C23          1.5370     0.4500     0.9970 ca         1 AIJ      -0.180500
     24 C24          0.1590     0.4520     0.7200 ca         1 AIJ      -0.048000
     25 O25          3.7900     1.1800     0.3730 os         1 AIJ      -0.325100
     26 C26          4.4070     0.4880     1.4800 c3         1 AIJ       0.163600
     27 C27          5.9530     0.7070     1.4430 c3         1 AIJ       0.198500
     28 C28          6.2850     2.1990     1.6970 c3         1 AIJ      -0.088100
     29 N29          6.6210     0.1760     0.2130 n3         1 AIJ      -0.720600
     30 C30          8.0990     0.2670     0.1800 c5         1 AIJ       0.165300
     31 C31          8.4430    -0.4610    -1.1470 c5         1 AIJ      -0.082400
     32 C32          7.2610    -1.4590    -1.3470 c5         1 AIJ      -0.082400
     33 C33          6.3860    -1.2550    -0.0840 c5         1 AIJ       0.165300
     34 H1          -1.7100    -0.0900    -2.4780 h1         1 AIJ       0.094700
     35 H2          -2.0640     2.0240    -1.3430 h1         1 AIJ       0.063700
     36 H5          -4.0180     2.2740     2.4240 ha         1 AIJ       0.131000
     37 H6          -6.5030     2.4290     2.5120 ha         1 AIJ       0.133000
     38 HO8         -8.5170     1.2020    -0.1880 ho         1 AIJ       0.465000
     39 H9          -6.7570     0.5310    -1.3550 ha         1 AIJ       0.122000
     40 H13         -3.6230    -1.4110     0.5460 ha         1 AIJ       0.120000
     41 H14         -3.0410    -3.5440     1.6390 ha         1 AIJ       0.121000
     42 H16         -1.6210    -5.2520     1.7180 ho         1 AIJ       0.465000
     43 H17          0.3990    -3.9460    -0.9350 ha         1 AIJ       0.121000
     44 H18         -0.1720    -1.8020    -2.0440 ha         1 AIJ       0.120000
     45 H20          0.1800     2.3830    -2.1070 ha         1 AIJ       0.120000
     46 H21          2.6120     2.3790    -1.6090 ha         1 AIJ       0.124000
     47 H23          1.8910    -0.0990     1.8640 ha         1 AIJ       0.124000
     48 H24         -0.5170    -0.0960     1.3730 ha         1 AIJ       0.120000
     49 H261         4.1870    -0.5850     1.4350 h1         1 AIJ       0.035700
     50 H262         4.0160     0.8680     2.4330 h1         1 AIJ       0.035700
     51 H27          6.3520     0.1540     2.3050 h1         1 AIJ       0.019700
     52 H281         6.0050     2.8130     0.8330 hc         1 AIJ       0.042700
     53 H282         5.7410     2.5710     2.5730 hc         1 AIJ       0.042700
     54 H283         7.3530     2.3410     1.8920 hc         1 AIJ       0.042700
     55 H301         8.4660     1.3020     0.1750 h1         1 AIJ       0.034700
     56 H302         8.5470    -0.2500     1.0410 h1         1 AIJ       0.034700
     57 H311         8.4980     0.2480    -1.9810 hc         1 AIJ       0.047450
     58 H312         9.4130    -0.9670    -1.0880 hc         1 AIJ       0.047450
     59 H321         6.6970    -1.2160    -2.2550 hc         1 AIJ       0.047450
     60 H322         7.5980    -2.4970    -1.4450 hc         1 AIJ       0.047450
     61 H331         6.7250    -1.8960     0.7430 h1         1 AIJ       0.034700
     62 H332         5.3310    -1.4840    -0.2870 h1         1 AIJ       0.034700
@<TRIPOS>BOND
     1     1     2 1   
     2     1    11 1   
     3     1    12 1   
     4     1    34 1   
     5     2     3 1   
     6     2    19 1   
     7     2    35 1   
     8     3     4 1   
     9     4     5 ar  
    10     4    10 ar  
    11     5     6 ar  
    12     5    36 1   
    13     6     7 ar  
    14     6    37 1   
    15     7     8 1   
    16     7     9 ar  
    17     8    38 1   
    18     9    10 ar  
    19     9    39 1   
    20    10    11 1   
    21    12    13 ar  
    22    12    18 ar  
    23    13    14 ar  
    24    13    40 1   
    25    14    15 ar  
    26    14    41 1   
    27    15    16 1   
    28    15    17 ar  
    29    16    42 1   
    30    17    18 ar  
    31    17    43 1   
    32    18    44 1   
    33    19    20 ar  
    34    19    24 ar  
    35    20    21 ar  
    36    20    45 1   
    37    21    22 ar  
    38    21    46 1   
    39    22    23 ar  
    40    22    25 1   
    41    23    24 ar  
    42    23    47 1   
    43    24    48 1   
    44    25    26 1   
    45    26    27 1   
    46    26    49 1   
    47    26    50 1   
    48    27    28 1   
    49    27    29 1   
    50    27    51 1   
    51    28    52 1   
    52    28    53 1   
    53    28    54 1   
    54    29    30 1   
    55    29    33 1   
    56    30    31 1   
    57    30    55 1   
    58    30    56 1   
    59    31    32 1   
    60    31    57 1   
    61    31    58 1   
    62    32    33 1   
    63    32    59 1   
    64    32    60 1   
    65    33    61 1   
    66    33    62 1   
@<TRIPOS>SUBSTRUCTURE
     1 AIJ         1 TEMP              0 ****  ****    0 ROOT
