@<TRIPOS>MOLECULE
AIJ
   62    66     1     0     0
SMALL
bcc


@<TRIPOS>ATOM
      1 C1          -2.1780    -0.1210    -1.4770 c6         1 AIJ       0.040700
      2 C2          -1.8140     1.1190    -0.6380 c6         1 AIJ       0.212400
      3 O3          -2.5410     1.1410     0.5710 os         1 AIJ      -0.310900
      4 C4          -3.8930     1.2490     0.4870 ca         1 AIJ       0.085100
      5 C5          -4.5520     1.8280     1.5670 ca         1 AIJ      -0.105000
      6 C6          -5.9280     1.9540     1.5840 ca         1 AIJ      -0.139000
      7 C7          -6.6760     1.5040     0.4960 ca         1 AIJ       0.125100
      8 O8          -8.0160     1.6520     0.5460 oh         1 AIJ      -0.494100
      9 C9          -6.0270     0.9230    -0.5830 ca         1 AIJ      -0.187000
     10 C10         -4.6380     0.7870    -0.5940 ca         1 AIJ       0.002900
     11 S11         -3.9150     0.0200    -2.0020 ss         1 AIJ      -0.232000
     12 C12         -1.8440    -1.4210    -0.8010 ca         1 AIJ      -0.113300
     13 C13         -2.6690    -2.0170     0.1470 ca         1 AIJ      -0.067500
     14 C14         -2.2880    -3.1780     0.8000 ca         1 AIJ      -0.197500
     15 C15         -1.0630    -3.7750     0.5140 ca         1 AIJ       0.142100
     16 O16         -0.6440    -4.9040     1.1190 oh         1 AIJ      -0.495100
     17 C17         -0.2320    -3.1970    -0.4410 ca         1 AIJ      -0.197500
     18 C18         -0.6260    -2.0360    -1.0830 ca         1 AIJ      -0.067500
     19 C19         -0.3500     1.1430    -0.3050 ca         1 AIJ      -0.134300
     20 C20          0.5340     1.7940    -1.1620 ca         1 AIJ      -0.066000
     21 C21          1.8970     1.7840    -0.9300 ca         1 AIJ      -0.198500
     22 C22          2.4130     1.1190     0.1830 ca         1 AIJ       0.153100
     23 C23          1.5370     0.4680     1.0500 ca         1 AIJ      -0.198500
     24 C24          0.1720     0.4810     0.7980 ca         1 AIJ      -0.066000
     25 O25          3.7480     1.1620     0.3390 os         1 AIJ      -0.301900
     26 C26          4.3350     0.4450     1.4090 c3         1 AIJ       0.140400
     27 C27          5.8390     0.6560     1.3820 c3         1 AIJ       0.198500
     28 C28          6.1880     2.1120     1.6740 c3         1 AIJ      -0.088100
     29 N29          6.4280     0.2210     0.1310 n3         1 AIJ      -0.720600
     30 C30          7.8870     0.2970     0.1180 c5         1 AIJ       0.165300
     31 C31          8.3420    -0.6800    -0.9800 c5         1 AIJ      -0.082400
     32 C32          7.0480    -1.3480    -1.4630 c5         1 AIJ      -0.082400
     33 C33          6.0910    -1.1240    -0.3030 c5         1 AIJ       0.165300
     34 H1          -1.6140    -0.0460    -2.4100 h1         1 AIJ       0.094700
     35 H2          -2.0570     2.0060    -1.2380 h1         1 AIJ       0.063700
     36 H5          -3.9690     2.1840     2.4070 ha         1 AIJ       0.149000
     37 H6          -6.4220     2.4060     2.4340 ha         1 AIJ       0.151000
     38 HO8         -8.4250     1.2960    -0.2510 ho         1 AIJ       0.426000
     39 H9          -6.6030     0.5590    -1.4280 ha         1 AIJ       0.140000
     40 H13         -3.6360    -1.5900     0.3840 ha         1 AIJ       0.138000
     41 H14         -2.9540    -3.6230     1.5310 ha         1 AIJ       0.139000
     42 H16         -1.2980    -5.2020     1.7620 ho         1 AIJ       0.426000
     43 H17          0.7210    -3.6550    -0.6780 ha         1 AIJ       0.139000
     44 H18          0.0380    -1.5940    -1.8160 ha         1 AIJ       0.138000
     45 H20          0.1540     2.3200    -2.0310 ha         1 AIJ       0.138000
     46 H21          2.5700     2.2980    -1.6050 ha         1 AIJ       0.142000
     47 H23          1.8950    -0.0580     1.9250 ha         1 AIJ       0.142000
     48 H24         -0.4810    -0.0470     1.4800 ha         1 AIJ       0.138000
     49 H261         4.0850    -0.6190     1.3380 h1         1 AIJ       0.035700
     50 H262         3.9540     0.8000     2.3730 h1         1 AIJ       0.035700
     51 H27          6.2200     0.0450     2.2240 h1         1 AIJ       0.019700
     52 H281         5.9060     2.7610     0.8450 hc         1 AIJ       0.042700
     53 H282         5.6660     2.4540     2.5680 hc         1 AIJ       0.042700
     54 H283         7.2550     2.2420     1.8550 hc         1 AIJ       0.042700
     55 H301         8.2200     1.3190    -0.0720 h1         1 AIJ       0.034700
     56 H302         8.3130    -0.0030     1.0890 h1         1 AIJ       0.034700
     57 H311         8.8660    -0.1730    -1.7900 hc         1 AIJ       0.047450
     58 H312         9.0300    -1.4180    -0.5680 hc         1 AIJ       0.047450
     59 H321         6.6670    -0.8490    -2.3560 hc         1 AIJ       0.047450
     60 H322         7.1750    -2.4040    -1.7040 hc         1 AIJ       0.047450
     61 H331         6.2580    -1.8790     0.4850 h1         1 AIJ       0.034700
     62 H332         5.0470    -1.1970    -0.6120 h1         1 AIJ       0.034700
@<TRIPOS>BOND
     1     1     2 1   
     2     1    11 1   
     3     1    12 1   
     4     1    34 1   
     5     2     3 1   
     6     2    19 1   
     7     2    35 1   
     8     3     4 1   
     9     4     5 ar  
    10     4    10 ar  
    11     5     6 ar  
    12     5    36 1   
    13     6     7 ar  
    14     6    37 1   
    15     7     8 1   
    16     7     9 ar  
    17     8    38 1   
    18     9    10 ar  
    19     9    39 1   
    20    10    11 1   
    21    12    13 ar  
    22    12    18 ar  
    23    13    14 ar  
    24    13    40 1   
    25    14    15 ar  
    26    14    41 1   
    27    15    16 1   
    28    15    17 ar  
    29    16    42 1   
    30    17    18 ar  
    31    17    43 1   
    32    18    44 1   
    33    19    20 ar  
    34    19    24 ar  
    35    20    21 ar  
    36    20    45 1   
    37    21    22 ar  
    38    21    46 1   
    39    22    23 ar  
    40    22    25 1   
    41    23    24 ar  
    42    23    47 1   
    43    24    48 1   
    44    25    26 1   
    45    26    27 1   
    46    26    49 1   
    47    26    50 1   
    48    27    28 1   
    49    27    29 1   
    50    27    51 1   
    51    28    52 1   
    52    28    53 1   
    53    28    54 1   
    54    29    30 1   
    55    29    33 1   
    56    30    31 1   
    57    30    55 1   
    58    30    56 1   
    59    31    32 1   
    60    31    57 1   
    61    31    58 1   
    62    32    33 1   
    63    32    59 1   
    64    32    60 1   
    65    33    61 1   
    66    33    62 1   
@<TRIPOS>SUBSTRUCTURE
     1 AIJ         1 TEMP              0 ****  ****    0 ROOT
