@<TRIPOS>MOLECULE
AIK
   72    74     1     0     0
SMALL
abcg2


@<TRIPOS>ATOM
      1 C14          3.5990    -3.2160     4.4560 cc         1 AIK      -0.162000
      2 C10          4.6560    -2.2880     4.4700 cc         1 AIK      -0.023400
      3 N9           5.0690    -1.5630     3.3510 ns         1 AIK      -0.371100
      4 C8           6.0370    -0.6050     3.3280 c          1 AIK       0.645700
      5 C6           6.2130     0.0580     2.0300 cc         1 AIK      -0.228600
      6 C7           5.3880     0.0490     0.9090 cd         1 AIK      -0.157000
      7 C3           5.9940     0.8670    -0.0620 cd         1 AIK      -0.022400
      8 N2           5.4900     1.1310    -1.3490 ns         1 AIK      -0.401100
      9 C1           6.2430     1.2740    -2.4580 c          1 AIK       0.602900
     10 O1           5.7980     1.5430    -3.5670 o          1 AIK      -0.596100
     11 C4           7.1680     1.3590     0.4830 cc         1 AIK      -0.197000
     12 N5           7.2990     0.8590     1.7440 na         1 AIK       0.070000
     13 C5           8.4460     1.1520     2.5960 c3         1 AIK       0.060900
     14 O8           6.7010    -0.3200     4.3270 o          1 AIK      -0.614100
     15 C11          5.1570    -2.2530     5.7680 cd         1 AIK      -0.162000
     16 N12          4.4350    -3.1200     6.5300 na         1 AIK       0.070000
     17 C12          4.7100    -3.3490     7.9440 c3         1 AIK       0.058900
     18 C13          3.4740    -3.7260     5.7470 cd         1 AIK      -0.241600
     19 C15          2.5190    -4.6880     6.2740 c          1 AIK       0.652700
     20 O15          2.3580    -4.9270     7.4710 o          1 AIK      -0.592100
     21 N16          1.7640    -5.3400     5.3250 ns         1 AIK      -0.464400
     22 C17          0.7640    -6.2440     5.5960 cc         1 AIK       0.546300
     23 N21          0.0870    -6.8100     4.6440 nd         1 AIK      -0.728000
     24 C20         -0.8660    -7.6850     5.1420 cd         1 AIK       0.243500
     25 C25         -1.7290    -8.3900     4.1480 c          1 AIK       0.531600
     26 O25         -2.5490    -9.2530     4.4720 o          1 AIK      -0.604100
     27 N26         -1.5280    -7.9940     2.8760 ns         1 AIK      -0.495900
     28 C27         -2.3170    -8.4350     1.7400 c3         1 AIK       0.106000
     29 C28         -3.1950    -7.3150     1.1780 c3         1 AIK      -0.093400
     30 C29         -4.2550    -6.8180     2.1570 c3         1 AIK       0.167800
     31 N30         -5.2590    -7.8230     2.5010 n3         1 AIK      -0.712600
     32 C32         -6.1870    -8.0740     1.4080 c3         1 AIK       0.152600
     33 C31         -5.9770    -7.4510     3.7120 c3         1 AIK       0.152600
     34 C19         -0.9150    -7.7820     6.5100 cc         1 AIK      -0.173300
     35 C22         -1.7670    -8.5610     7.4830 c3         1 AIK       0.019600
     36 C23         -1.5330   -10.0740     7.3760 c3         1 AIK      -0.086600
     37 C24         -3.2520    -8.1880     7.3790 c3         1 AIK      -0.086600
     38 S18          0.2930    -6.7330     7.1950 ss         1 AIK       0.041600
     39 H14          2.9870    -3.4550     3.6010 ha         1 AIK       0.133000
     40 H9           4.6020    -1.7890     2.4870 hn         1 AIK       0.327500
     41 H7           4.4460    -0.4660     0.8030 ha         1 AIK       0.136000
     42 H2           4.4870     1.2040    -1.4620 hn         1 AIK       0.322500
     43 H1           7.3170     1.1220    -2.2740 h5         1 AIK       0.015200
     44 H4           7.9100     2.0210     0.0690 h4         1 AIK       0.158000
     45 H51          9.1620     1.7140     2.0020 h1         1 AIK       0.064700
     46 H52          8.9060     0.2310     2.9440 h1         1 AIK       0.064700
     47 H53          8.1420     1.7410     3.4590 h1         1 AIK       0.064700
     48 H11          5.9660    -1.6870     6.1860 h4         1 AIK       0.180000
     49 H121         4.8740    -4.4070     8.1320 h1         1 AIK       0.065367
     50 H122         5.6070    -2.7910     8.2000 h1         1 AIK       0.065367
     51 H123         3.8780    -3.0080     8.5570 h1         1 AIK       0.065367
     52 H16          1.9370    -5.1790     4.3430 hn         1 AIK       0.342500
     53 H26         -0.8400    -7.2680     2.7360 hn         1 AIK       0.329500
     54 H271        -1.6410    -8.7960     0.9610 h1         1 AIK       0.063700
     55 H272        -2.9300    -9.2700     2.0700 h1         1 AIK       0.063700
     56 H281        -3.6550    -7.6680     0.2530 hc         1 AIK       0.041700
     57 H282        -2.5600    -6.4670     0.9010 hc         1 AIK       0.041700
     58 H291        -3.7610    -6.5140     3.0820 h1         1 AIK       0.031200
     59 H292        -4.7340    -5.9120     1.7440 h1         1 AIK       0.031200
     60 H321        -6.7570    -7.1700     1.1310 h1         1 AIK       0.029367
     61 H322        -5.6550    -8.4230     0.5230 h1         1 AIK       0.029367
     62 H323        -6.8970    -8.8480     1.7020 h1         1 AIK       0.029367
     63 H311        -6.5430    -6.5100     3.5950 h1         1 AIK       0.029367
     64 H312        -6.6850    -8.2390     3.9770 h1         1 AIK       0.029367
     65 H313        -5.2740    -7.3270     4.5360 h1         1 AIK       0.029367
     66 H22         -1.4350    -8.2610     8.4820 hc         1 AIK       0.037700
     67 H231        -2.1080   -10.5900     8.1480 hc         1 AIK       0.044700
     68 H232        -1.8450   -10.4400     6.4000 hc         1 AIK       0.044700
     69 H233        -0.4770   -10.3120     7.5200 hc         1 AIK       0.044700
     70 H241        -3.6490    -8.4630     6.4040 hc         1 AIK       0.044700
     71 H242        -3.8170    -8.7130     8.1510 hc         1 AIK       0.044700
     72 H243        -3.3900    -7.1150     7.5240 hc         1 AIK       0.044700
@<TRIPOS>BOND
     1     1     2 1   
     2     1    18 2   
     3     1    39 1   
     4     2     3 1   
     5     2    15 2   
     6     3     4 1   
     7     3    40 1   
     8     4     5 1   
     9     4    14 2   
    10     5     6 2   
    11     5    12 1   
    12     6     7 1   
    13     6    41 1   
    14     7     8 1   
    15     7    11 2   
    16     8     9 1   
    17     8    42 1   
    18     9    10 2   
    19     9    43 1   
    20    11    12 1   
    21    11    44 1   
    22    12    13 1   
    23    13    45 1   
    24    13    46 1   
    25    13    47 1   
    26    15    16 1   
    27    15    48 1   
    28    16    17 1   
    29    16    18 1   
    30    17    49 1   
    31    17    50 1   
    32    17    51 1   
    33    18    19 1   
    34    19    20 2   
    35    19    21 1   
    36    21    22 1   
    37    21    52 1   
    38    22    23 2   
    39    22    38 1   
    40    23    24 1   
    41    24    25 1   
    42    24    34 2   
    43    25    26 2   
    44    25    27 1   
    45    27    28 1   
    46    27    53 1   
    47    28    29 1   
    48    28    54 1   
    49    28    55 1   
    50    29    30 1   
    51    29    56 1   
    52    29    57 1   
    53    30    31 1   
    54    30    58 1   
    55    30    59 1   
    56    31    32 1   
    57    31    33 1   
    58    32    60 1   
    59    32    61 1   
    60    32    62 1   
    61    33    63 1   
    62    33    64 1   
    63    33    65 1   
    64    34    35 1   
    65    34    38 1   
    66    35    36 1   
    67    35    37 1   
    68    35    66 1   
    69    36    67 1   
    70    36    68 1   
    71    36    69 1   
    72    37    70 1   
    73    37    71 1   
    74    37    72 1   
@<TRIPOS>SUBSTRUCTURE
     1 AIK         1 TEMP              0 ****  ****    0 ROOT
