@<TRIPOS>MOLECULE
AIK
   72    74     1     0     0
SMALL
No Charge or Current Charge


@<TRIPOS>ATOM
      1 C14          3.3770    -3.5390     5.0940 cc         1 AIK      -0.162000
      2 C10          4.3140    -2.5080     4.9200 cc         1 AIK      -0.023400
      3 N9           4.5190    -1.8330     3.7230 ns         1 AIK      -0.371100
      4 C8           5.4030    -0.8100     3.4300 c          1 AIK       0.645700
      5 C6           5.3290    -0.3380     2.0200 cc         1 AIK      -0.228600
      6 C7           4.4820    -0.8340     1.0500 cd         1 AIK      -0.157000
      7 C3           4.7130    -0.1340    -0.1420 cd         1 AIK      -0.022400
      8 N2           4.0290    -0.3830    -1.3140 ns         1 AIK      -0.401100
      9 C1           4.1910     0.2530    -2.5240 c          1 AIK       0.602900
     10 O1           3.5230    -0.0560    -3.5020 o          1 AIK      -0.596100
     11 C4           5.6890     0.7980     0.0470 cc         1 AIK      -0.197000
     12 N5           6.0730     0.6740     1.3860 na         1 AIK       0.070000
     13 C5           7.1110     1.4970     2.0230 c3         1 AIK       0.060900
     14 O8           6.1740    -0.3360     4.2540 o          1 AIK      -0.614100
     15 C11          4.9620    -2.3010     6.1060 cd         1 AIK      -0.162000
     16 N12          4.4220    -3.2120     7.0220 na         1 AIK       0.070000
     17 C12          4.8450    -3.3220     8.4270 c3         1 AIK       0.058900
     18 C13          3.4300    -3.9890     6.3950 cd         1 AIK      -0.241600
     19 C15          2.6000    -5.0730     6.9930 c          1 AIK       0.652700
     20 O15          2.6930    -5.4280     8.1580 o          1 AIK      -0.592100
     21 N16          1.7220    -5.6320     6.1060 ns         1 AIK      -0.464400
     22 C17          0.8200    -6.6360     6.3070 cc         1 AIK       0.546300
     23 N21          0.0870    -6.9910     5.2760 nd         1 AIK      -0.728000
     24 C20         -0.8000    -8.0310     5.6150 cd         1 AIK       0.243500
     25 C25         -1.7660    -8.6300     4.6020 c          1 AIK       0.531600
     26 O25         -2.5730    -9.5330     4.7810 o          1 AIK      -0.604100
     27 N26         -1.6440    -8.0250     3.3690 ns         1 AIK      -0.495900
     28 C27         -2.4470    -8.3490     2.1890 c3         1 AIK       0.106000
     29 C28         -2.1690    -7.3940     1.0090 c3         1 AIK      -0.093400
     30 C29         -2.5590    -5.9190     1.2770 c3         1 AIK       0.167800
     31 N30         -3.9840    -5.6910     1.6300 n3         1 AIK      -0.712600
     32 C32         -4.9370    -6.0790     0.5620 c3         1 AIK       0.152600
     33 C31         -4.2240    -4.3120     2.1070 c3         1 AIK       0.152600
     34 C19         -0.6930    -8.4350     6.9510 cc         1 AIK      -0.173300
     35 C22         -1.4200    -9.4920     7.7690 c3         1 AIK       0.019600
     36 C23         -1.1280   -10.9410     7.3180 c3         1 AIK      -0.086600
     37 C24         -2.9200    -9.1910     7.9860 c3         1 AIK      -0.086600
     38 S18          0.5280    -7.5050     7.7860 ss         1 AIK       0.041600
     39 H14          2.7290    -3.8970     4.3000 ha         1 AIK       0.133000
     40 H9           3.9540    -2.1090     2.9320 hn         1 AIK       0.327500
     41 H7           3.7530    -1.6300     1.1650 ha         1 AIK       0.136000
     42 H2           3.3210    -1.1060    -1.3310 hn         1 AIK       0.322500
     43 H1           4.9620     1.0450    -2.5200 h5         1 AIK       0.015200
     44 H4           6.1370     1.5190    -0.6240 h4         1 AIK       0.158000
     45 H51          7.5250     2.2060     1.2960 h1         1 AIK       0.064700
     46 H52          7.9160     0.8500     2.3930 h1         1 AIK       0.064700
     47 H53          6.6750     2.0540     2.8610 h1         1 AIK       0.064700
     48 H11          5.7440    -1.6020     6.3750 h4         1 AIK       0.180000
     49 H121         5.2270    -4.3320     8.6160 h1         1 AIK       0.065367
     50 H122         5.6350    -2.5920     8.6370 h1         1 AIK       0.065367
     51 H123         3.9890    -3.1260     9.0830 h1         1 AIK       0.065367
     52 H16          1.7500    -5.2460     5.1780 hn         1 AIK       0.342500
     53 H26         -0.9510    -7.2850     3.3160 hn         1 AIK       0.329500
     54 H271        -2.2170    -9.3780     1.8820 h1         1 AIK       0.063700
     55 H272        -3.5120    -8.3070     2.4560 h1         1 AIK       0.063700
     56 H281        -2.6970    -7.7600     0.1210 hc         1 AIK       0.041700
     57 H282        -1.1010    -7.4350     0.7640 hc         1 AIK       0.041700
     58 H291        -1.9200    -5.5500     2.0910 h1         1 AIK       0.031200
     59 H292        -2.3010    -5.3290     0.3860 h1         1 AIK       0.031200
     60 H321        -4.7490    -5.5080    -0.3570 h1         1 AIK       0.029367
     61 H322        -4.8600    -7.1480     0.3290 h1         1 AIK       0.029367
     62 H323        -5.9710    -5.8860     0.8790 h1         1 AIK       0.029367
     63 H311        -4.0310    -3.5820     1.3100 h1         1 AIK       0.029367
     64 H312        -5.2630    -4.1910     2.4410 h1         1 AIK       0.029367
     65 H313        -3.5690    -4.0750     2.9570 h1         1 AIK       0.029367
     66 H22         -0.9930    -9.4400     8.7790 hc         1 AIK       0.037700
     67 H231        -1.5300   -11.6550     8.0470 hc         1 AIK       0.044700
     68 H232        -1.5720   -11.1750     6.3470 hc         1 AIK       0.044700
     69 H233        -0.0470   -11.1080     7.2470 hc         1 AIK       0.044700
     70 H241        -3.5040    -9.2870     7.0670 hc         1 AIK       0.044700
     71 H242        -3.3450    -9.8840     8.7230 hc         1 AIK       0.044700
     72 H243        -3.0530    -8.1720     8.3680 hc         1 AIK       0.044700
@<TRIPOS>BOND
     1     1     2 1   
     2     1    18 2   
     3     1    39 1   
     4     2     3 1   
     5     2    15 2   
     6     3     4 1   
     7     3    40 1   
     8     4     5 1   
     9     4    14 2   
    10     5     6 2   
    11     5    12 1   
    12     6     7 1   
    13     6    41 1   
    14     7     8 1   
    15     7    11 2   
    16     8     9 1   
    17     8    42 1   
    18     9    10 2   
    19     9    43 1   
    20    11    12 1   
    21    11    44 1   
    22    12    13 1   
    23    13    45 1   
    24    13    46 1   
    25    13    47 1   
    26    15    16 1   
    27    15    48 1   
    28    16    17 1   
    29    16    18 1   
    30    17    49 1   
    31    17    50 1   
    32    17    51 1   
    33    18    19 1   
    34    19    20 2   
    35    19    21 1   
    36    21    22 1   
    37    21    52 1   
    38    22    23 2   
    39    22    38 1   
    40    23    24 1   
    41    24    25 1   
    42    24    34 2   
    43    25    26 2   
    44    25    27 1   
    45    27    28 1   
    46    27    53 1   
    47    28    29 1   
    48    28    54 1   
    49    28    55 1   
    50    29    30 1   
    51    29    56 1   
    52    29    57 1   
    53    30    31 1   
    54    30    58 1   
    55    30    59 1   
    56    31    32 1   
    57    31    33 1   
    58    32    60 1   
    59    32    61 1   
    60    32    62 1   
    61    33    63 1   
    62    33    64 1   
    63    33    65 1   
    64    34    35 1   
    65    34    38 1   
    66    35    36 1   
    67    35    37 1   
    68    35    66 1   
    69    36    67 1   
    70    36    68 1   
    71    36    69 1   
    72    37    70 1   
    73    37    71 1   
    74    37    72 1   
@<TRIPOS>SUBSTRUCTURE
     1 AIK         1 TEMP              0 ****  ****    0 ROOT
