@<TRIPOS>MOLECULE
AIL
   39    41     1     0     0
SMALL
No Charge or Current Charge


@<TRIPOS>ATOM
      1 C1           3.3840     2.5800     0.1490 c5         1 AIL       0.159800
      2 N2           1.9120     2.7040     0.1530 n7         1 AIL      -0.851400
      3 C3           1.3930     1.6260    -0.7680 c5         1 AIL       0.094500
      4 C4           2.6530     1.1220    -1.5570 c5         1 AIL      -0.079400
      5 C5           3.6760     2.2690    -1.3320 c5         1 AIL      -0.098700
      6 C6           5.1460     1.9020    -1.6350 c3         1 AIL       0.116000
      7 C7           0.6960     0.4110    -0.0200 c          1 AIL       0.577100
      8 O8           0.6130     0.2960     1.1990 o          1 AIL      -0.606100
      9 N9           0.2390    -0.6090    -0.8890 n          1 AIL      -0.417800
     10 C10         -0.2930    -1.8810    -0.3210 c5         1 AIL       0.100000
     11 C11         -0.5870    -2.7760    -1.5480 c5         1 AIL       0.043600
     12 S12         -1.4430    -1.6260    -2.7000 ss         1 AIL      -0.421000
     13 C13         -0.1740    -0.3410    -2.2950 c5         1 AIL       0.241000
     14 N14          5.3780     1.4790    -3.0170 ns         1 AIL      -0.492900
     15 C15          5.4160     2.3170    -4.1140 c          1 AIL       0.531600
     16 O16          5.2970     3.5330    -4.0060 o          1 AIL      -0.603100
     17 N17          5.7520     0.2070    -5.5150 nc         1 AIL      -0.641000
     18 C18          5.9170    -0.1470    -6.7870 cd         1 AIL       0.408300
     19 S19          5.9200     1.1730    -7.9530 ss         1 AIL      -0.000400
     20 C20          5.6810     2.2680    -6.6040 cd         1 AIL      -0.201000
     21 C21          5.6190     1.5820    -5.4130 cc         1 AIL       0.208500
     22 H11          3.7100     1.7550     0.8000 h1         1 AIL       0.044700
     23 H12          3.8730     3.5020     0.4930 h1         1 AIL       0.044700
     24 HN2          1.5480     2.5540     1.1060 hn         1 AIL       0.442000
     25 H3           0.6560     2.0690    -1.4510 h1         1 AIL       0.081700
     26 H41          3.0300     0.1750    -1.1500 hc         1 AIL       0.049200
     27 H42          2.4470     0.9590    -2.6210 hc         1 AIL       0.049200
     28 H5           3.4260     3.1370    -1.9540 hc         1 AIL       0.086700
     29 H61          5.4560     1.0850    -0.9700 h1         1 AIL       0.055700
     30 H62          5.7860     2.7680    -1.4160 h1         1 AIL       0.055700
     31 H101        -1.2100    -1.6900     0.2520 h1         1 AIL       0.068700
     32 H102         0.4320    -2.3570     0.3530 h1         1 AIL       0.068700
     33 H111         0.3400    -3.1440    -2.0080 h1         1 AIL       0.080700
     34 H112        -1.2220    -3.6360    -1.2980 h1         1 AIL       0.080700
     35 H131        -0.6140     0.6610    -2.3610 h2         1 AIL       0.074200
     36 H132         0.7110    -0.4680    -2.9290 h2         1 AIL       0.074200
     37 HN14         5.4910     0.4910    -3.2200 hn         1 AIL       0.337500
     38 H20          5.6020     3.3360    -6.7620 h4         1 AIL       0.183000
     39 H18          6.0440    -1.1650    -7.1330 h5         1 AIL       0.056100
@<TRIPOS>BOND
     1     1     2 1   
     2     1     5 1   
     3     1    22 1   
     4     1    23 1   
     5     2     3 1   
     6     2    24 1   
     7     3     4 1   
     8     3     7 1   
     9     3    25 1   
    10     4     5 1   
    11     4    26 1   
    12     4    27 1   
    13     5     6 1   
    14     5    28 1   
    15     6    14 1   
    16     6    29 1   
    17     6    30 1   
    18     7     8 2   
    19     7     9 1   
    20     9    10 1   
    21     9    13 1   
    22    10    11 1   
    23    10    31 1   
    24    10    32 1   
    25    11    12 1   
    26    11    33 1   
    27    11    34 1   
    28    12    13 1   
    29    13    35 1   
    30    13    36 1   
    31    14    15 1   
    32    14    37 1   
    33    15    16 2   
    34    15    21 1   
    35    17    18 2   
    36    17    21 1   
    37    18    19 1   
    38    18    39 1   
    39    19    20 1   
    40    20    21 2   
    41    20    38 1   
@<TRIPOS>SUBSTRUCTURE
     1 AIL         1 TEMP              0 ****  ****    0 ROOT
