@<TRIPOS>MOLECULE
AIL
   39    41     1     0     0
SMALL
bcc


@<TRIPOS>ATOM
      1 C1           3.2960     2.5460     0.0520 c5         1 AIL       0.159800
      2 N2           1.8450     2.6150     0.0640 n7         1 AIL      -0.796200
      3 C3           1.3360     1.5980    -0.8400 c5         1 AIL       0.094500
      4 C4           2.5120     1.2840    -1.8000 c5         1 AIL      -0.079400
      5 C5           3.5970     2.2940    -1.4190 c5         1 AIL      -0.098700
      6 C6           5.0160     1.8090    -1.6680 c3         1 AIL       0.116000
      7 C7           0.8630     0.3420    -0.1110 c          1 AIL       0.644100
      8 O8           0.9930     0.2160     1.0990 o          1 AIL      -0.606100
      9 N9           0.2930    -0.6280    -0.8550 n          1 AIL      -0.484800
     10 C10         -0.2020    -1.8390    -0.2050 c5         1 AIL       0.100000
     11 C11         -0.7590    -2.7370    -1.3000 c5         1 AIL      -0.004300
     12 S12         -1.4110    -1.5990    -2.5530 ss         1 AIL      -0.325200
     13 C13          0.0400    -0.5510    -2.2810 c5         1 AIL       0.193100
     14 N14          5.2590     1.4170    -3.0390 ns         1 AIL      -0.559900
     15 C15          5.4980     2.2910    -4.0230 c          1 AIL       0.598600
     16 O16          5.5640     3.5040    -3.8690 o          1 AIL      -0.603100
     17 N17          5.6250     0.3230    -5.5360 nc         1 AIL      -0.641000
     18 C18          5.8280     0.0040    -6.7700 cd         1 AIL       0.408300
     19 S19          6.1200     1.3370    -7.8160 ss         1 AIL      -0.145300
     20 C20          5.9570     2.3940    -6.4890 cd         1 AIL      -0.139400
     21 C21          5.6960     1.6760    -5.3620 cc         1 AIL       0.273800
     22 H11          3.7030     1.7260     0.6620 h1         1 AIL       0.044700
     23 H12          3.7350     3.4770     0.4170 h1         1 AIL       0.044700
     24 HN2          1.4700     2.5000     0.9970 hn         1 AIL       0.386800
     25 H3           0.4820     2.0020    -1.3970 h1         1 AIL       0.081700
     26 H41          2.8800     0.2650    -1.6430 hc         1 AIL       0.049200
     27 H42          2.2180     1.3610    -2.8460 hc         1 AIL       0.049200
     28 H5           3.4330     3.2240    -1.9700 hc         1 AIL       0.086700
     29 H61          5.2250     0.9380    -1.0450 h1         1 AIL       0.055700
     30 H62          5.7300     2.5840    -1.3820 h1         1 AIL       0.055700
     31 H101        -0.9820    -1.5830     0.5150 h1         1 AIL       0.068700
     32 H102         0.5990    -2.3480     0.3320 h1         1 AIL       0.068700
     33 H111         0.0150    -3.3650    -1.7410 h1         1 AIL       0.080700
     34 H112        -1.5580    -3.3760    -0.9290 h1         1 AIL       0.080700
     35 H131        -0.1850     0.4600    -2.6130 h2         1 AIL       0.074200
     36 H132         0.8850    -0.9310    -2.8590 h2         1 AIL       0.074200
     37 HN14         5.2130     0.4390    -3.2780 hn         1 AIL       0.337500
     38 H20          6.0540     3.4630    -6.5940 h4         1 AIL       0.201000
     39 H18          5.8200    -1.0100    -7.1450 h5         1 AIL       0.056100
@<TRIPOS>BOND
     1     1     2 1   
     2     1     5 1   
     3     1    22 1   
     4     1    23 1   
     5     2     3 1   
     6     2    24 1   
     7     3     4 1   
     8     3     7 1   
     9     3    25 1   
    10     4     5 1   
    11     4    26 1   
    12     4    27 1   
    13     5     6 1   
    14     5    28 1   
    15     6    14 1   
    16     6    29 1   
    17     6    30 1   
    18     7     8 2   
    19     7     9 1   
    20     9    10 1   
    21     9    13 1   
    22    10    11 1   
    23    10    31 1   
    24    10    32 1   
    25    11    12 1   
    26    11    33 1   
    27    11    34 1   
    28    12    13 1   
    29    13    35 1   
    30    13    36 1   
    31    14    15 1   
    32    14    37 1   
    33    15    16 2   
    34    15    21 1   
    35    17    18 2   
    36    17    21 1   
    37    18    19 1   
    38    18    39 1   
    39    19    20 1   
    40    20    21 2   
    41    20    38 1   
@<TRIPOS>SUBSTRUCTURE
     1 AIL         1 TEMP              0 ****  ****    0 ROOT
