@<TRIPOS>MOLECULE
AIM
   27    28     1     0     0
SMALL
abcg2


@<TRIPOS>ATOM
      1 C01          1.1510     0.2620     2.3730 c6         1 AIM      -0.089400
      2 C02         -0.1490    -0.0060     3.1340 c6         1 AIM       0.152500
      3 C03         -1.3360     0.0480     2.1790 c6         1 AIM      -0.089400
      4 C04         -1.1570    -0.9000     0.9880 c6         1 AIM      -0.051200
      5 C05          0.1390    -0.6320     0.2940 c2         1 AIM       0.013600
      6 C06          1.3350    -0.6940     1.1880 c6         1 AIM      -0.051200
      7 N20         -0.3750     0.8960     4.2540 n8         1 AIM      -0.985200
      8 C22          0.1960    -0.3020    -1.0150 cc         1 AIM       0.143000
      9 N23         -0.8860    -0.1900    -1.8810 nc         1 AIM      -0.771000
     10 C24         -0.3440     0.1520    -3.0130 cd         1 AIM       0.834900
     11 N25          1.0530     0.2900    -3.0120 nd         1 AIM      -0.708000
     12 C26          1.3800     0.0130    -1.7950 cc         1 AIM       0.348900
     13 N27         -1.0020     0.3430    -4.1690 nv         1 AIM      -1.049900
     14 HC11         1.1440     1.2940     2.0070 hc         1 AIM       0.048950
     15 HC12         2.0050     0.1690     3.0500 hc         1 AIM       0.048950
     16 HC21        -0.0950    -1.0220     3.5450 h1         1 AIM       0.059700
     17 HC31        -2.2550    -0.2060     2.7110 hc         1 AIM       0.048950
     18 HC32        -1.4560     1.0720     1.8080 hc         1 AIM       0.048950
     19 HC41        -1.1410    -1.9310     1.3600 hc         1 AIM       0.062200
     20 HC42        -1.9950    -0.8170     0.2980 hc         1 AIM       0.062200
     21 HC61         1.4250    -1.7170     1.5720 hc         1 AIM       0.062200
     22 HC62         2.2640    -0.4730     0.6640 hc         1 AIM       0.062200
     23 HN11         0.4060     0.8330     4.8960 hn         1 AIM       0.391500
     24 HN12        -0.3690     1.8520     3.9160 hn         1 AIM       0.391500
     25 H261         2.4080     0.0300    -1.4600 h4         1 AIM       0.036100
     26 HN21        -0.5290     0.8310    -4.9100 hn         1 AIM       0.489500
     27 HN22        -2.0030     0.4340    -4.1450 hn         1 AIM       0.489500
@<TRIPOS>BOND
     1     1     2 1   
     2     1     6 1   
     3     1    14 1   
     4     1    15 1   
     5     2     3 1   
     6     2     7 1   
     7     2    16 1   
     8     3     4 1   
     9     3    17 1   
    10     3    18 1   
    11     4     5 1   
    12     4    19 1   
    13     4    20 1   
    14     5     6 1   
    15     5     8 2   
    16     6    21 1   
    17     6    22 1   
    18     7    23 1   
    19     7    24 1   
    20     8     9 1   
    21     8    12 1   
    22     9    10 2   
    23    10    11 1   
    24    10    13 1   
    25    11    12 2   
    26    12    25 1   
    27    13    26 1   
    28    13    27 1   
@<TRIPOS>SUBSTRUCTURE
     1 AIM         1 TEMP              0 ****  ****    0 ROOT
