@<TRIPOS>MOLECULE
AIM
   27    28     1     0     0
SMALL
No Charge or Current Charge


@<TRIPOS>ATOM
      1 C01          1.1480     0.2870     2.4230 c6         1 AIM      -0.089400
      2 C02         -0.1660    -0.0560     3.1690 c6         1 AIM       0.152500
      3 C03         -1.3830     0.0620     2.2200 c6         1 AIM      -0.089400
      4 C04         -1.2070    -0.8340     0.9680 c6         1 AIM      -0.051200
      5 C05          0.1140    -0.5430     0.2460 c2         1 AIM       0.013600
      6 C06          1.3330    -0.6090     1.1730 c6         1 AIM      -0.051200
      7 N20         -0.3390     0.8260     4.3370 n8         1 AIM      -0.985200
      8 C22          0.1900    -0.2750    -1.0960 cc         1 AIM       0.143000
      9 N23         -0.8600    -0.2150    -1.9650 nc         1 AIM      -0.771000
     10 C24         -0.2650     0.0550    -3.1010 cd         1 AIM       0.834900
     11 N25          1.0920     0.2050    -3.1210 nd         1 AIM      -0.708000
     12 C26          1.3590    -0.0140    -1.8500 cc         1 AIM       0.348900
     13 N27         -0.9710     0.2130    -4.1880 nv         1 AIM      -1.049900
     14 HC11         1.1410     1.3420     2.1140 hc         1 AIM       0.048950
     15 HC12         2.0090     0.1610     3.0940 hc         1 AIM       0.048950
     16 HC21        -0.1040    -1.0930     3.5390 h1         1 AIM       0.059700
     17 HC31        -2.3030    -0.2220     2.7490 hc         1 AIM       0.048950
     18 HC32        -1.5130     1.1060     1.9020 hc         1 AIM       0.048950
     19 HC41        -1.2250    -1.8910     1.2680 hc         1 AIM       0.062200
     20 HC42        -2.0680    -0.6950     0.3020 hc         1 AIM       0.062200
     21 HC61         1.4840    -1.6510     1.4890 hc         1 AIM       0.062200
     22 HC62         2.2560    -0.3150     0.6580 hc         1 AIM       0.062200
     23 HN11         0.5030     0.7690     4.9220 hn         1 AIM       0.391500
     24 HN12        -0.3420     1.8000     4.0160 hn         1 AIM       0.391500
     25 H261         2.3870     0.0250    -1.5150 h4         1 AIM       0.036100
     26 HN21        -0.5120     0.7650    -4.8980 hn         1 AIM       0.489500
     27 HN22        -1.9440     0.4260    -4.0180 hn         1 AIM       0.489500
@<TRIPOS>BOND
     1     1     2 1   
     2     1     6 1   
     3     1    14 1   
     4     1    15 1   
     5     2     3 1   
     6     2     7 1   
     7     2    16 1   
     8     3     4 1   
     9     3    17 1   
    10     3    18 1   
    11     4     5 1   
    12     4    19 1   
    13     4    20 1   
    14     5     6 1   
    15     5     8 2   
    16     6    21 1   
    17     6    22 1   
    18     7    23 1   
    19     7    24 1   
    20     8     9 1   
    21     8    12 1   
    22     9    10 2   
    23    10    11 1   
    24    10    13 1   
    25    11    12 2   
    26    12    25 1   
    27    13    26 1   
    28    13    27 1   
@<TRIPOS>SUBSTRUCTURE
     1 AIM         1 TEMP              0 ****  ****    0 ROOT
