@<TRIPOS>MOLECULE
AIN
   20    20     1     0     0
SMALL
No Charge or Current Charge


@<TRIPOS>ATOM
      1 O1           1.6530     1.2590    -1.7800 o          1 AIN      -0.718500
      2 C7           1.3280     0.3030    -1.0880 c          1 AIN       0.725600
      3 O2           2.1380    -0.4760    -0.6060 o          1 AIN      -0.718500
      4 C3          -0.1460     0.0280    -0.9090 ca         1 AIN      -0.138600
      5 C4          -1.0180     0.1940    -2.0110 ca         1 AIN      -0.079000
      6 C5          -2.3910    -0.0770    -1.8880 ca         1 AIN      -0.149000
      7 C6          -2.9150    -0.5180    -0.6640 ca         1 AIN      -0.130000
      8 C1          -2.0640    -0.6810     0.4390 ca         1 AIN      -0.149000
      9 C2          -0.6900    -0.4010     0.3280 ca         1 AIN       0.129100
     10 O3           0.0870    -0.5640     1.4490 os         1 AIN      -0.356200
     11 C8           0.7260     0.4720     2.0750 c          1 AIN       0.644100
     12 O4           0.5540     1.6540     1.8060 o          1 AIN      -0.489000
     13 C9           1.5580    -0.0120     3.2580 c3         1 AIN      -0.147100
     14 H4          -0.6240     0.5250    -2.9700 ha         1 AIN       0.132000
     15 H5          -3.0480     0.0510    -2.7450 ha         1 AIN       0.088000
     16 H6          -3.9780    -0.7320    -0.5700 ha         1 AIN       0.085000
     17 H1          -2.4700    -1.0170     1.3900 ha         1 AIN       0.097000
     18 H91          2.0030     0.8120     3.8260 hc         1 AIN       0.057700
     19 H92          0.9350    -0.6520     3.8920 hc         1 AIN       0.057700
     20 H93          2.3150    -0.7140     2.8920 hc         1 AIN       0.057700
@<TRIPOS>BOND
     1     1     2 1   
     2     2     3 1   
     3     2     4 1   
     4     4     5 ar  
     5     4     9 ar  
     6     5     6 ar  
     7     5    14 1   
     8     6     7 ar  
     9     6    15 1   
    10     7     8 ar  
    11     7    16 1   
    12     8     9 ar  
    13     8    17 1   
    14     9    10 1   
    15    10    11 1   
    16    11    12 2   
    17    11    13 1   
    18    13    18 1   
    19    13    19 1   
    20    13    20 1   
@<TRIPOS>SUBSTRUCTURE
     1 AIN         1 TEMP              0 ****  ****    0 ROOT
