@<TRIPOS>MOLECULE
AIN
   20    20     1     0     0
SMALL
bcc


@<TRIPOS>ATOM
      1 O1           1.7060     0.6760    -2.1860 o          1 AIN      -0.823800
      2 C7           1.3590     0.3250    -1.0430 c          1 AIN       0.936200
      3 O2           2.1040     0.1780    -0.0560 o          1 AIN      -0.823800
      4 C3          -0.1350     0.0470    -0.8560 ca         1 AIN      -0.138600
      5 C4          -0.9920     0.2170    -1.9440 ca         1 AIN      -0.097000
      6 C5          -2.3530    -0.0310    -1.8610 ca         1 AIN      -0.167000
      7 C6          -2.8980    -0.4690    -0.6620 ca         1 AIN      -0.148000
      8 C1          -2.0750    -0.6450     0.4390 ca         1 AIN      -0.167000
      9 C2          -0.7150    -0.3920     0.3360 ca         1 AIN       0.129100
     10 O3           0.0420    -0.6530     1.4560 os         1 AIN      -0.356200
     11 C8           0.5880     0.3870     2.1120 c          1 AIN       0.693100
     12 O4           0.2380     1.5230     1.9380 o          1 AIN      -0.538000
     13 C9           1.5840    -0.0850     3.1220 c3         1 AIN      -0.147100
     14 H4          -0.5660     0.5540    -2.8790 ha         1 AIN       0.150000
     15 H5          -2.9850     0.1140    -2.7270 ha         1 AIN       0.106000
     16 H6          -3.9590    -0.6680    -0.5790 ha         1 AIN       0.103000
     17 H1          -2.4830    -0.9870     1.3820 ha         1 AIN       0.115000
     18 H91          2.0320     0.7590     3.6390 hc         1 AIN       0.057700
     19 H92          1.1000    -0.7310     3.8570 hc         1 AIN       0.057700
     20 H93          2.3630    -0.6660     2.6340 hc         1 AIN       0.057700
@<TRIPOS>BOND
     1     1     2 1   
     2     2     3 1   
     3     2     4 1   
     4     4     5 ar  
     5     4     9 ar  
     6     5     6 ar  
     7     5    14 1   
     8     6     7 ar  
     9     6    15 1   
    10     7     8 ar  
    11     7    16 1   
    12     8     9 ar  
    13     8    17 1   
    14     9    10 1   
    15    10    11 1   
    16    11    12 2   
    17    11    13 1   
    18    13    18 1   
    19    13    19 1   
    20    13    20 1   
@<TRIPOS>SUBSTRUCTURE
     1 AIN         1 TEMP              0 ****  ****    0 ROOT
