@<TRIPOS>MOLECULE
AIP
   88    88     1     0     0
SMALL
abcg2


@<TRIPOS>ATOM
      1 C27          5.5960     1.6920    -1.5160 ca         1 AIP      -0.110000
      2 C28          6.3640     0.5580    -1.7420 ca         1 AIP      -0.120500
      3 C29          7.1980     0.0710    -0.7420 ca         1 AIP      -0.159000
      4 C30          7.2450     0.7210     0.4850 ca         1 AIP      -0.120500
      5 C31          6.4710     1.8540     0.7050 ca         1 AIP      -0.110000
      6 C26          5.6430     2.3620    -0.2940 ca         1 AIP      -0.035300
      7 C25          4.8100     3.5880    -0.0470 c3         1 AIP      -0.042100
      8 C23          3.4840     3.2720     0.6590 c3         1 AIP      -0.030300
      9 C24          2.7010     4.5680     0.9980 c          1 AIP       0.712000
     10 O5           1.5160     4.6350     0.6290 o          1 AIP      -0.717500
     11 O6           3.3450     5.4270     1.6320 o          1 AIP      -0.717500
     12 N7           2.7320     2.3340    -0.1290 ns         1 AIP      -0.472900
     13 C22          1.9650     1.3650     0.4150 c          1 AIP       0.650100
     14 O4           1.9380     1.1190     1.6170 o          1 AIP      -0.657100
     15 N6           1.2180     0.6590    -0.4950 ns         1 AIP      -0.499900
     16 C17          0.7230    -0.6560    -0.1810 c3         1 AIP       0.039700
     17 C16         -0.6190    -0.8690    -0.8720 c          1 AIP       0.606100
     18 O3          -0.8480    -0.4080    -1.9790 o          1 AIP      -0.612100
     19 C18          1.6860    -1.7740    -0.6160 c3         1 AIP      -0.097400
     20 C19          3.0660    -1.6380     0.0110 c3         1 AIP      -0.099400
     21 C20          3.9960    -2.7710    -0.3890 c3         1 AIP       0.229800
     22 N3           5.2680    -2.6080     0.2760 nu         1 AIP      -0.903400
     23 C21          6.2400    -3.5660     0.1780 c2         1 AIP       0.807100
     24 N4           7.4040    -3.2530     0.8460 nv         1 AIP      -1.085200
     25 N5           6.0050    -4.6760    -0.4200 n2         1 AIP      -0.915100
     26 N2          -1.4740    -1.6410    -0.1830 ns         1 AIP      -0.492900
     27 C11         -2.7800    -2.0270    -0.6490 c3         1 AIP       0.031700
     28 C10         -3.8000    -1.7570     0.4590 c          1 AIP       0.588100
     29 O2          -3.4530    -1.5310     1.6090 o          1 AIP      -0.603100
     30 C12         -2.8330    -3.5020    -1.1080 c3         1 AIP      -0.068700
     31 C13         -1.8540    -3.7450    -2.2510 c3         1 AIP      -0.088100
     32 C14         -2.5930    -4.4760     0.0400 c3         1 AIP      -0.088100
     33 O1          -7.4160    -3.4310    -0.1260 oh         1 AIP      -0.666000
     34 N1          -5.0760    -1.8140     0.0570 ns         1 AIP      -0.501900
     35 N8          -6.7660     3.1780    -0.1160 nu         1 AIP      -0.899400
     36 N10         -8.7170     4.2870    -0.6320 n2         1 AIP      -0.909100
     37 N9          -6.6210     5.3990    -0.6860 nv         1 AIP      -1.064200
     38 C8          -6.2230    -1.6560     0.9310 c3         1 AIP       0.111700
     39 C7          -7.1490    -0.5540     0.4180 c3         1 AIP      -0.081400
     40 C6          -6.4790     0.8120     0.3780 c3         1 AIP      -0.095400
     41 C5          -7.4350     1.8970    -0.0920 c3         1 AIP       0.224800
     42 C4          -7.4440     4.3090    -0.4820 c2         1 AIP       0.792100
     43 C9          -6.9360    -2.9860     1.1210 c3         1 AIP       0.142600
     44 H27          4.9610     2.0730    -2.3070 ha         1 AIP       0.116000
     45 H28          6.3190     0.0590    -2.7010 ha         1 AIP       0.099000
     46 H29          7.8150    -0.8000    -0.9240 ha         1 AIP       0.090000
     47 H30          7.8970     0.3560     1.2700 ha         1 AIP       0.099000
     48 H31          6.5200     2.3570     1.6630 ha         1 AIP       0.116000
     49 H251         5.3600     4.2960     0.5730 hc         1 AIP       0.061200
     50 H252         4.6060     4.0910    -0.9980 hc         1 AIP       0.061200
     51 H23          3.7240     2.7810     1.6060 h1         1 AIP       0.069700
     52 HN7          2.5760     2.5800    -1.0930 hn         1 AIP       0.293500
     53 HN6          1.3920     0.8280    -1.4740 hn         1 AIP       0.301500
     54 H17          0.5930    -0.7090     0.9010 h1         1 AIP       0.099700
     55 H181         1.2510    -2.7390    -0.3380 hc         1 AIP       0.041700
     56 H182         1.7720    -1.7720    -1.7080 hc         1 AIP       0.041700
     57 H191         3.5170    -0.6880    -0.2940 hc         1 AIP       0.064200
     58 H192         2.9770    -1.6110     1.1000 hc         1 AIP       0.064200
     59 H201         3.5700    -3.7320    -0.0950 h1         1 AIP       0.041700
     60 H202         4.1040    -2.7990    -1.4810 h1         1 AIP       0.041700
     61 HN3          5.5870    -1.6530     0.3530 hn         1 AIP       0.483000
     62 HN41         7.5510    -2.2970     1.1250 hn         1 AIP       0.456000
     63 HN42         8.2420    -3.6960     0.5090 hn         1 AIP       0.456000
     64 HN5          6.7900    -5.3080    -0.3160 hn         1 AIP       0.368400
     65 HN2         -1.2310    -1.8960     0.7610 hn         1 AIP       0.335500
     66 H11         -3.0260    -1.3980    -1.5080 h1         1 AIP       0.091700
     67 H12         -3.8420    -3.6760    -1.4940 hc         1 AIP       0.041700
     68 H131        -0.8190    -3.6480    -1.9190 hc         1 AIP       0.037700
     69 H132        -1.9780    -4.7550    -2.6450 hc         1 AIP       0.037700
     70 H133        -2.0130    -3.0450    -3.0720 hc         1 AIP       0.037700
     71 H141        -3.3540    -4.3980     0.8180 hc         1 AIP       0.037700
     72 H142        -2.6120    -5.5020    -0.3280 hc         1 AIP       0.037700
     73 H143        -1.6170    -4.3180     0.5040 hc         1 AIP       0.037700
     74 HN1         -5.2660    -2.0230    -0.9110 hn         1 AIP       0.321500
     75 HN8         -5.7960     3.1460    -0.3910 hn         1 AIP       0.479000
     76 HN0         -9.0680     5.2160    -0.8320 hn         1 AIP       0.370400
     77 HN91        -5.7800     5.4290    -0.1300 hn         1 AIP       0.454500
     78 HN92        -7.0900     6.2910    -0.6950 hn         1 AIP       0.454500
     79 H8          -5.8430    -1.3590     1.9100 h1         1 AIP       0.087700
     80 H71         -7.5270    -0.8140    -0.5760 hc         1 AIP       0.049700
     81 H72         -8.0200    -0.5150     1.0790 hc         1 AIP       0.049700
     82 H61         -6.0970     1.0680     1.3710 hc         1 AIP       0.054200
     83 H62         -5.6140     0.7780    -0.2930 hc         1 AIP       0.054200
     84 H51         -8.2890     1.9580     0.5860 h1         1 AIP       0.045200
     85 H52         -7.8380     1.6320    -1.0780 h1         1 AIP       0.045200
     86 H9          -7.7480    -2.8440     1.8460 h1         1 AIP       0.028200
     87 H45         -7.7640    -4.3210    -0.0170 ho         1 AIP       0.442000
     88 H46         -6.2320    -3.7020     1.5620 h1         1 AIP       0.028200
@<TRIPOS>BOND
     1     1     2 ar  
     2     1     6 ar  
     3     1    44 1   
     4     2     3 ar  
     5     2    45 1   
     6     3     4 ar  
     7     3    46 1   
     8     4     5 ar  
     9     4    47 1   
    10     5     6 ar  
    11     5    48 1   
    12     6     7 1   
    13     7     8 1   
    14     7    49 1   
    15     7    50 1   
    16     8     9 1   
    17     8    12 1   
    18     8    51 1   
    19     9    10 1   
    20     9    11 1   
    21    12    13 1   
    22    12    52 1   
    23    13    14 2   
    24    13    15 1   
    25    15    16 1   
    26    15    53 1   
    27    16    17 1   
    28    16    19 1   
    29    16    54 1   
    30    17    18 2   
    31    17    26 1   
    32    19    20 1   
    33    19    55 1   
    34    19    56 1   
    35    20    21 1   
    36    20    57 1   
    37    20    58 1   
    38    21    22 1   
    39    21    59 1   
    40    21    60 1   
    41    22    23 1   
    42    22    61 1   
    43    23    24 1   
    44    23    25 2   
    45    24    62 1   
    46    24    63 1   
    47    25    64 1   
    48    26    27 1   
    49    26    65 1   
    50    27    28 1   
    51    27    30 1   
    52    27    66 1   
    53    28    29 2   
    54    28    34 1   
    55    30    31 1   
    56    30    32 1   
    57    30    67 1   
    58    31    68 1   
    59    31    69 1   
    60    31    70 1   
    61    32    71 1   
    62    32    72 1   
    63    32    73 1   
    64    33    43 1   
    65    33    87 1   
    66    34    38 1   
    67    34    74 1   
    68    35    41 1   
    69    35    42 1   
    70    35    75 1   
    71    36    42 2   
    72    36    76 1   
    73    37    42 1   
    74    37    77 1   
    75    37    78 1   
    76    38    39 1   
    77    38    43 1   
    78    38    79 1   
    79    39    40 1   
    80    39    80 1   
    81    39    81 1   
    82    40    41 1   
    83    40    82 1   
    84    40    83 1   
    85    41    84 1   
    86    41    85 1   
    87    43    86 1   
    88    43    88 1   
@<TRIPOS>SUBSTRUCTURE
     1 AIP         1 TEMP              0 ****  ****    0 ROOT
