@<TRIPOS>MOLECULE
AIP
   88    88     1     0     0
SMALL
No Charge or Current Charge


@<TRIPOS>ATOM
      1 C27          5.9670     1.0370    -1.2640 ca         1 AIP      -0.110000
      2 C28          6.5210    -0.0630    -0.5860 ca         1 AIP      -0.120500
      3 C29          6.8180     0.0330     0.7840 ca         1 AIP      -0.159000
      4 C30          6.5440     1.2230     1.4780 ca         1 AIP      -0.120500
      5 C31          5.9920     2.3230     0.7990 ca         1 AIP      -0.110000
      6 C26          5.7070     2.2410    -0.5780 ca         1 AIP      -0.035300
      7 C25          5.1680     3.4590    -1.3220 c3         1 AIP      -0.042100
      8 C23          3.6800     3.7720    -1.0260 c3         1 AIP      -0.030300
      9 C24          3.2350     5.1010    -1.7080 c          1 AIP       0.712000
     10 O5           3.1430     5.1310    -2.9290 o          1 AIP      -0.717500
     11 O6           2.9330     6.0450    -0.9900 o          1 AIP      -0.717500
     12 N7           2.7930     2.6560    -1.4360 ns         1 AIP      -0.472900
     13 C22          2.2260     1.7430    -0.5870 c          1 AIP       0.650100
     14 O4           2.3430     1.7730     0.6270 o          1 AIP      -0.657100
     15 N6           1.4930     0.8000    -1.2560 ns         1 AIP      -0.499900
     16 C17          0.7650    -0.3220    -0.6200 c3         1 AIP       0.039700
     17 C16         -0.5940    -0.5660    -1.3420 c          1 AIP       0.606100
     18 O3          -0.8850    -0.0560    -2.4180 o          1 AIP      -0.612100
     19 C18          1.6300    -1.6140    -0.6000 c3         1 AIP      -0.097400
     20 C19          2.9340    -1.5030     0.2260 c3         1 AIP      -0.099400
     21 C20          3.7230    -2.8250     0.2790 c3         1 AIP       0.229800
     22 N3           4.9130    -2.6700     1.1220 nu         1 AIP      -0.903400
     23 C21          5.7840    -3.6440     1.3440 c2         1 AIP       0.807100
     24 N4           6.1850    -3.4560     2.5640 nv         1 AIP      -1.085200
     25 N5           5.7470    -4.7560     0.7910 n2         1 AIP      -0.915100
     26 N2          -1.4630    -1.4040    -0.6750 ns         1 AIP      -0.492900
     27 C11         -2.7880    -1.8450    -1.1770 c3         1 AIP       0.031700
     28 C10         -3.8250    -1.8630    -0.0130 c          1 AIP       0.588100
     29 O2          -3.5140    -1.7070     1.1620 o          1 AIP      -0.603100
     30 C12         -2.6990    -3.2200    -1.9150 c3         1 AIP      -0.068700
     31 C13         -1.8510    -3.1480    -3.2080 c3         1 AIP      -0.088100
     32 C14         -2.2110    -4.3680    -0.9970 c3         1 AIP      -0.088100
     33 O1          -7.5310    -3.4540    -1.1920 oh         1 AIP      -0.666000
     34 N1          -5.1320    -2.0670    -0.3990 ns         1 AIP      -0.501900
     35 N8          -6.5040     2.8400     1.3670 nu         1 AIP      -0.899400
     36 N10         -8.1870     4.3700     1.2170 n2         1 AIP      -0.909100
     37 N9          -6.0220     4.8350     1.8150 nv         1 AIP      -1.064200
     38 C8          -6.2850    -2.1610     0.5070 c3         1 AIP       0.111700
     39 C7          -7.1350    -0.8640     0.4730 c3         1 AIP      -0.081400
     40 C6          -6.3720     0.4120     0.9100 c3         1 AIP      -0.095400
     41 C5          -7.2690     1.6650     0.9300 c3         1 AIP       0.224800
     42 C4          -7.0160     4.0500     1.4980 c2         1 AIP       0.792100
     43 C9          -7.1190    -3.4330     0.1870 c3         1 AIP       0.142600
     44 H27          5.7520     0.9580    -2.3280 ha         1 AIP       0.116000
     45 H28          6.7310    -0.9830    -1.1260 ha         1 AIP       0.099000
     46 H29          7.2700    -0.8060     1.3060 ha         1 AIP       0.090000
     47 H30          6.7720     1.2990     2.5390 ha         1 AIP       0.099000
     48 H31          5.7970     3.2460     1.3410 ha         1 AIP       0.116000
     49 H251         5.7670     4.3380    -1.0540 hc         1 AIP       0.061200
     50 H252         5.2960     3.3300    -2.4040 hc         1 AIP       0.061200
     51 H23          3.5730     3.9250     0.0560 h1         1 AIP       0.069700
     52 HN7          2.5980     2.5490    -2.4220 hn         1 AIP       0.293500
     53 HN6          1.4270     0.8950    -2.2620 hn         1 AIP       0.301500
     54 H17          0.5180    -0.0460     0.4130 h1         1 AIP       0.099700
     55 H181         1.0330    -2.4380    -0.1890 hc         1 AIP       0.041700
     56 H182         1.8790    -1.8950    -1.6310 hc         1 AIP       0.041700
     57 H191         3.5770    -0.7260    -0.2030 hc         1 AIP       0.064200
     58 H192         2.6860    -1.1910     1.2480 hc         1 AIP       0.064200
     59 H201         3.0770    -3.6160     0.6850 h1         1 AIP       0.041700
     60 H202         4.0140    -3.1120    -0.7420 h1         1 AIP       0.041700
     61 HN3          5.3610    -1.7640     1.0530 hn         1 AIP       0.483000
     62 HN41         5.6570    -2.6950     2.9620 hn         1 AIP       0.456000
     63 HN42         7.1870    -3.3380     2.6330 hn         1 AIP       0.456000
     64 HN5          6.3060    -5.3780     1.3830 hn         1 AIP       0.368400
     65 HN2         -1.1650    -1.7440     0.2330 hn         1 AIP       0.335500
     66 H11         -3.1590    -1.0970    -1.8890 h1         1 AIP       0.091700
     67 H12         -3.7140    -3.4830    -2.2370 hc         1 AIP       0.041700
     68 H131        -0.7940    -2.9670    -2.9800 hc         1 AIP       0.037700
     69 H132        -1.9200    -4.0890    -3.7660 hc         1 AIP       0.037700
     70 H133        -2.2070    -2.3420    -3.8610 hc         1 AIP       0.037700
     71 H141        -2.8560    -4.4710    -0.1160 hc         1 AIP       0.037700
     72 H142        -2.2270    -5.3230    -1.5350 hc         1 AIP       0.037700
     73 H143        -1.1840    -4.1910    -0.6530 hc         1 AIP       0.037700
     74 HN1         -5.3060    -2.2130    -1.3870 hn         1 AIP       0.321500
     75 HN8         -5.5350     2.8780     1.0820 hn         1 AIP       0.479000
     76 HN0         -8.2720     5.3850     1.3340 hn         1 AIP       0.370400
     77 HN91        -5.4380     4.4070     2.5200 hn         1 AIP       0.454500
     78 HN92        -6.3110     5.7740     2.0520 hn         1 AIP       0.454500
     79 H8          -5.9150    -2.2830     1.5350 h1         1 AIP       0.087700
     80 H71         -7.5290    -0.7150    -0.5400 hc         1 AIP       0.049700
     81 H72         -8.0020    -0.9970     1.1320 hc         1 AIP       0.049700
     82 H61         -5.9520     0.2540     1.9110 hc         1 AIP       0.054200
     83 H62         -5.5310     0.5870     0.2290 hc         1 AIP       0.054200
     84 H51         -8.1130     1.4930     1.6120 h1         1 AIP       0.045200
     85 H52         -7.6770     1.8340    -0.0770 h1         1 AIP       0.045200
     86 H9          -7.9950    -3.4660     0.8500 h1         1 AIP       0.028200
     87 H45         -8.0550    -4.2760    -1.3230 ho         1 AIP       0.442000
     88 H46         -6.5060    -4.3170     0.4070 h1         1 AIP       0.028200
@<TRIPOS>BOND
     1     1     2 ar  
     2     1     6 ar  
     3     1    44 1   
     4     2     3 ar  
     5     2    45 1   
     6     3     4 ar  
     7     3    46 1   
     8     4     5 ar  
     9     4    47 1   
    10     5     6 ar  
    11     5    48 1   
    12     6     7 1   
    13     7     8 1   
    14     7    49 1   
    15     7    50 1   
    16     8     9 1   
    17     8    12 1   
    18     8    51 1   
    19     9    10 1   
    20     9    11 1   
    21    12    13 1   
    22    12    52 1   
    23    13    14 2   
    24    13    15 1   
    25    15    16 1   
    26    15    53 1   
    27    16    17 1   
    28    16    19 1   
    29    16    54 1   
    30    17    18 2   
    31    17    26 1   
    32    19    20 1   
    33    19    55 1   
    34    19    56 1   
    35    20    21 1   
    36    20    57 1   
    37    20    58 1   
    38    21    22 1   
    39    21    59 1   
    40    21    60 1   
    41    22    23 1   
    42    22    61 1   
    43    23    24 1   
    44    23    25 2   
    45    24    62 1   
    46    24    63 1   
    47    25    64 1   
    48    26    27 1   
    49    26    65 1   
    50    27    28 1   
    51    27    30 1   
    52    27    66 1   
    53    28    29 2   
    54    28    34 1   
    55    30    31 1   
    56    30    32 1   
    57    30    67 1   
    58    31    68 1   
    59    31    69 1   
    60    31    70 1   
    61    32    71 1   
    62    32    72 1   
    63    32    73 1   
    64    33    43 1   
    65    33    87 1   
    66    34    38 1   
    67    34    74 1   
    68    35    41 1   
    69    35    42 1   
    70    35    75 1   
    71    36    42 2   
    72    36    76 1   
    73    37    42 1   
    74    37    77 1   
    75    37    78 1   
    76    38    39 1   
    77    38    43 1   
    78    38    79 1   
    79    39    40 1   
    80    39    80 1   
    81    39    81 1   
    82    40    41 1   
    83    40    82 1   
    84    40    83 1   
    85    41    84 1   
    86    41    85 1   
    87    43    86 1   
    88    43    88 1   
@<TRIPOS>SUBSTRUCTURE
     1 AIP         1 TEMP              0 ****  ****    0 ROOT
