@<TRIPOS>MOLECULE
AIQ
   32    34     1     0     0
SMALL
bcc


@<TRIPOS>ATOM
      1 C1          -2.2930    -0.3620    -0.8250 ca         1 AIQ      -0.125000
      2 C2          -0.9920    -0.4510    -0.3780 ca         1 AIQ      -0.064300
      3 C9          -0.7090    -0.7710     1.0560 c3         1 AIQ       0.085000
      4 C3           0.0760    -0.2190    -1.2710 ca         1 AIQ       0.204400
      5 N3           1.3610    -0.3090    -0.8100 nc         1 AIQ      -0.694100
      6 C8           2.3180    -0.0890    -1.6510 cd         1 AIQ       0.709800
      7 N2           3.6080    -0.1080    -1.2550 nv         1 AIQ      -0.924800
      8 N1           2.0950     0.2200    -2.9670 ns         1 AIQ      -0.517400
      9 C7           0.8480     0.3220    -3.5370 c          1 AIQ       0.731100
     10 O1           0.7230     0.5950    -4.7190 o          1 AIQ      -0.616500
     11 C4          -0.2440     0.0830    -2.6020 ca         1 AIQ      -0.191600
     12 C5          -1.5670     0.1590    -3.0430 ca         1 AIQ      -0.114000
     13 C6          -2.6130    -0.0590    -2.1620 ca         1 AIQ       0.109600
     14 N4          -3.9340     0.0660    -2.5520 nv         1 AIQ      -0.813200
     15 S1          -0.4650     0.8110     1.9270 ss         1 AIQ      -0.308400
     16 C10         -0.0150     0.2240     3.5100 cc         1 AIQ       0.509800
     17 N5           0.0810    -1.0250     3.8860 nd         1 AIQ      -0.691000
     18 N6           0.2840     1.0720     4.5180 na         1 AIQ      -0.290900
     19 C11          0.4620    -0.9790     5.2020 cd         1 AIQ       0.303200
     20 C12          0.5930     0.3110     5.6140 cc         1 AIQ      -0.263600
     21 H11         -3.1000    -0.5340    -0.1200 ha         1 AIQ       0.137000
     22 H91         -1.5410    -1.3010     1.5160 h1         1 AIQ       0.089700
     23 H92          0.1950    -1.3670     1.1620 h1         1 AIQ       0.089700
     24 HN21         3.7890    -0.5080    -0.3490 hn         1 AIQ       0.435800
     25 HN22         4.3380    -0.2460    -1.9340 hn         1 AIQ       0.435800
     26 HN11         2.8850     0.3950    -3.5750 hn         1 AIQ       0.324500
     27 H51         -1.7680     0.3930    -4.0820 ha         1 AIQ       0.153000
     28 HN41        -4.1010    -0.0660    -3.5370 hn         1 AIQ       0.389300
     29 HN42        -4.5940    -0.4590    -2.0000 hn         1 AIQ       0.389300
     30 HN61         0.2840     2.0790     4.4810 hn         1 AIQ       0.308700
     31 H111         0.6200    -1.8790     5.7760 h4         1 AIQ       0.036100
     32 H121         0.8700     0.7500     6.5570 h4         1 AIQ       0.174000
@<TRIPOS>BOND
     1     1     2 ar  
     2     1    13 ar  
     3     1    21 1   
     4     2     3 1   
     5     2     4 ar  
     6     3    15 1   
     7     3    22 1   
     8     3    23 1   
     9     4     5 1   
    10     4    11 ar  
    11     5     6 2   
    12     6     7 1   
    13     6     8 1   
    14     7    24 1   
    15     7    25 1   
    16     8     9 1   
    17     8    26 1   
    18     9    10 2   
    19     9    11 1   
    20    11    12 ar  
    21    12    13 ar  
    22    12    27 1   
    23    13    14 1   
    24    14    28 1   
    25    14    29 1   
    26    15    16 1   
    27    16    17 2   
    28    16    18 1   
    29    17    19 1   
    30    18    20 1   
    31    18    30 1   
    32    19    20 2   
    33    19    31 1   
    34    20    32 1   
@<TRIPOS>SUBSTRUCTURE
     1 AIQ         1 TEMP              0 ****  ****    0 ROOT
