@<TRIPOS>MOLECULE
AIQ
   32    34     1     0     0
SMALL
No Charge or Current Charge


@<TRIPOS>ATOM
      1 C1          -2.1320    -0.3070    -0.7230 ca         1 AIQ      -0.107000
      2 C2          -0.7670    -0.3940    -0.3780 ca         1 AIQ      -0.064300
      3 C9          -0.4180    -0.6850     1.0820 c3         1 AIQ       0.132900
      4 C3           0.2360    -0.2120    -1.3680 ca         1 AIQ       0.204400
      5 N3           1.5930    -0.3060    -0.9910 nc         1 AIQ      -0.694100
      6 C8           2.4100    -0.1170    -1.9960 cd         1 AIQ       0.709800
      7 N2           3.6920    -0.2050    -1.6850 nv         1 AIQ      -1.035200
      8 N1           2.1240     0.1420    -3.2770 ns         1 AIQ      -0.450400
      9 C7           0.8640     0.2540    -3.7390 c          1 AIQ       0.588600
     10 O1           0.6260     0.4980    -4.9120 o          1 AIQ      -0.541000
     11 C4          -0.1770     0.0570    -2.6950 ca         1 AIQ      -0.191600
     12 C5          -1.5470     0.1410    -3.0250 ca         1 AIQ      -0.096000
     13 C6          -2.5260    -0.0410    -2.0400 ca         1 AIQ       0.248000
     14 N4          -3.8580     0.0410    -2.3620 nv         1 AIQ      -1.062000
     15 S1          -0.5800     0.8450     2.1110 ss         1 AIQ      -0.356300
     16 C10         -0.1750     0.2500     3.7090 cc         1 AIQ       0.509800
     17 N5           0.1200    -0.9980     3.9990 nd         1 AIQ      -0.691000
     18 N6          -0.1570     1.0790     4.7890 na         1 AIQ      -0.290500
     19 C11          0.3530    -0.9780     5.3640 cd         1 AIQ       0.237900
     20 C12          0.1880     0.2920     5.8730 cc         1 AIQ      -0.231000
     21 H11         -2.8900    -0.4440     0.0440 ha         1 AIQ       0.119000
     22 H91         -1.1020    -1.4490     1.4730 h1         1 AIQ       0.089700
     23 H92          0.6000    -1.0800     1.1790 h1         1 AIQ       0.089700
     24 HN21         3.8540    -0.5800    -0.7590 hn         1 AIQ       0.491000
     25 HN22         4.3240    -0.5350    -2.4030 hn         1 AIQ       0.491000
     26 HN11         2.8630     0.2890    -3.9440 hn         1 AIQ       0.324500
     27 H51         -1.8510     0.3500    -4.0480 ha         1 AIQ       0.135000
     28 HN41        -4.1520     0.1480    -3.3320 hn         1 AIQ       0.444500
     29 HN42        -4.5740    -0.1730    -1.6690 hn         1 AIQ       0.444500
     30 HN61        -0.3580     2.0710     4.7730 hn         1 AIQ       0.359000
     31 H111         0.6250    -1.8770     5.9050 h4         1 AIQ       0.036100
     32 H121         0.2870     0.6690     6.8840 h4         1 AIQ       0.156000
@<TRIPOS>BOND
     1     1     2 ar  
     2     1    13 ar  
     3     1    21 1   
     4     2     3 1   
     5     2     4 ar  
     6     3    15 1   
     7     3    22 1   
     8     3    23 1   
     9     4     5 1   
    10     4    11 ar  
    11     5     6 2   
    12     6     7 1   
    13     6     8 1   
    14     7    24 1   
    15     7    25 1   
    16     8     9 1   
    17     8    26 1   
    18     9    10 2   
    19     9    11 1   
    20    11    12 ar  
    21    12    13 ar  
    22    12    27 1   
    23    13    14 1   
    24    14    28 1   
    25    14    29 1   
    26    15    16 1   
    27    16    17 2   
    28    16    18 1   
    29    17    19 1   
    30    18    20 1   
    31    18    30 1   
    32    19    20 2   
    33    19    31 1   
    34    20    32 1   
@<TRIPOS>SUBSTRUCTURE
     1 AIQ         1 TEMP              0 ****  ****    0 ROOT
