@<TRIPOS>MOLECULE
AIS
   28    29     1     0     0
SMALL
No Charge or Current Charge


@<TRIPOS>ATOM
      1 O2          -0.9780     2.7920    -0.0980 oh         1 AIS      -0.703000
      2 C2          -0.4810     1.5790    -0.6810 c5         1 AIS       0.095300
      3 C3          -1.6910     0.6560    -1.0040 c5         1 AIS       0.091300
      4 O3          -2.8030     1.4300    -1.4970 oh         1 AIS      -0.706000
      5 C4          -1.9240     0.0320     0.4050 c5         1 AIS       0.162300
      6 C5          -2.8600    -1.2090     0.4290 c3         1 AIS       0.163600
      7 O5          -3.1480    -1.6260     1.7770 oh         1 AIS      -0.701000
      8 O4          -0.5860    -0.3300     0.8120 os         1 AIS      -0.423000
      9 C1           0.3350     0.6830     0.3290 c5         1 AIS       0.309300
     10 N1           1.5290     0.0080    -0.1960 na         1 AIS      -0.203500
     11 C6           1.7080    -0.4280    -1.4950 cc         1 AIS       0.400400
     12 N3           2.9280    -0.9150    -1.6850 nd         1 AIS      -0.664000
     13 C7           3.5630    -0.7920    -0.4640 cd         1 AIS       0.189900
     14 C8           2.7130    -0.2270     0.4640 cc         1 AIS       0.115000
     15 N6           2.8920     0.0800     1.7940 nv         1 AIS      -1.024000
     16 H1          -1.8890     2.8610    -0.4860 ho         1 AIS       0.525000
     17 H2           0.1000     1.8080    -1.5850 h1         1 AIS       0.060700
     18 H3          -1.4040    -0.1200    -1.7280 h1         1 AIS       0.057700
     19 H8          -3.3750     0.8300    -2.0340 ho         1 AIS       0.516000
     20 H4          -2.3200     0.7830     1.1040 h1         1 AIS       0.093700
     21 H5'1        -3.7940    -0.9520    -0.0880 h1         1 AIS       0.026700
     22 H5'2        -2.3830    -2.0240    -0.1330 h1         1 AIS       0.026700
     23 H5          -3.6910    -2.4470     1.7150 ho         1 AIS       0.507000
     24 H6           0.6770     1.3120     1.1600 h2         1 AIS       0.126700
     25 H7           0.9290    -0.3590    -2.2450 h5         1 AIS       0.059100
     26 H9           4.5870    -1.1150    -0.3190 h4         1 AIS       0.037100
     27 HN61         3.7520    -0.2090     2.2610 hn         1 AIS       0.431500
     28 HN62         2.0840     0.2370     2.3950 hn         1 AIS       0.431500
@<TRIPOS>BOND
     1     1     2 1   
     2     1    16 1   
     3     2     3 1   
     4     2     9 1   
     5     2    17 1   
     6     3     4 1   
     7     3     5 1   
     8     3    18 1   
     9     4    19 1   
    10     5     6 1   
    11     5     8 1   
    12     5    20 1   
    13     6     7 1   
    14     6    21 1   
    15     6    22 1   
    16     7    23 1   
    17     8     9 1   
    18     9    10 1   
    19     9    24 1   
    20    10    11 1   
    21    10    14 1   
    22    11    12 2   
    23    11    25 1   
    24    12    13 1   
    25    13    14 2   
    26    13    26 1   
    27    14    15 1   
    28    15    27 1   
    29    15    28 1   
@<TRIPOS>SUBSTRUCTURE
     1 AIS         1 TEMP              0 ****  ****    0 ROOT
