@<TRIPOS>MOLECULE
AIS
   28    29     1     0     0
SMALL
bcc


@<TRIPOS>ATOM
      1 O2          -0.8320     2.5290     0.8510 oh         1 AIS      -0.580800
      2 C2          -0.3640     1.5290    -0.0120 c5         1 AIS       0.072100
      3 C3          -1.5260     0.8400    -0.7350 c5         1 AIS       0.068100
      4 O3          -2.5280     1.7200    -1.1590 oh         1 AIS      -0.583800
      5 C4          -2.0560    -0.0890     0.3530 c5         1 AIS       0.139100
      6 C5          -2.7540    -1.3090    -0.1960 c3         1 AIS       0.140400
      7 O5          -3.2550    -2.0730     0.8720 oh         1 AIS      -0.578800
      8 O4          -0.9050    -0.4630     1.1090 os         1 AIS      -0.376600
      9 C1           0.1730     0.3870     0.8510 c5         1 AIS       0.256800
     10 N1           1.2300    -0.3570     0.1870 na         1 AIS      -0.224900
     11 C6           1.1400    -1.5270    -0.5000 cc         1 AIS       0.400400
     12 N3           2.3060    -1.9240    -0.9270 nd         1 AIS      -0.664000
     13 C7           3.2000    -0.9690    -0.5220 cd         1 AIS       0.255200
     14 C8           2.5510     0.0140     0.1760 cc         1 AIS      -0.038000
     15 N6           2.9840     1.1370     0.8690 nv         1 AIS      -0.775200
     16 H1          -1.5200     3.0220     0.3870 ho         1 AIS       0.426000
     17 H2           0.3920     1.9130    -0.7100 h1         1 AIS       0.060700
     18 H3          -1.1330     0.2480    -1.5720 h1         1 AIS       0.057700
     19 H8          -2.2930     2.0630    -2.0270 ho         1 AIS       0.417000
     20 H4          -2.7510     0.4620     1.0010 h1         1 AIS       0.093700
     21 H5'1        -3.5540    -0.9580    -0.8600 h1         1 AIS       0.026700
     22 H5'2        -2.0530    -1.8820    -0.8180 h1         1 AIS       0.026700
     23 H5          -3.7050    -2.8400     0.5070 ho         1 AIS       0.408000
     24 H6           0.5960     0.7690     1.7850 h2         1 AIS       0.126700
     25 H7           0.2080    -2.0470    -0.6530 h5         1 AIS       0.059100
     26 H9           4.2560    -1.0360    -0.7340 h4         1 AIS       0.037100
     27 HN61         3.9920     1.1680     0.9200 hn         1 AIS       0.376300
     28 HN62         2.6680     2.0100     0.4640 hn         1 AIS       0.376300
@<TRIPOS>BOND
     1     1     2 1   
     2     1    16 1   
     3     2     3 1   
     4     2     9 1   
     5     2    17 1   
     6     3     4 1   
     7     3     5 1   
     8     3    18 1   
     9     4    19 1   
    10     5     6 1   
    11     5     8 1   
    12     5    20 1   
    13     6     7 1   
    14     6    21 1   
    15     6    22 1   
    16     7    23 1   
    17     8     9 1   
    18     9    10 1   
    19     9    24 1   
    20    10    11 1   
    21    10    14 1   
    22    11    12 2   
    23    11    25 1   
    24    12    13 1   
    25    13    14 2   
    26    13    26 1   
    27    14    15 1   
    28    15    27 1   
    29    15    28 1   
@<TRIPOS>SUBSTRUCTURE
     1 AIS         1 TEMP              0 ****  ****    0 ROOT
