@<TRIPOS>MOLECULE
AIT
   62    66     1     0     0
SMALL
bcc


@<TRIPOS>ATOM
      1 C1           2.4780    -0.0710     1.5320 c6         1 AIT       0.042700
      2 C2           1.7090     1.0080     0.7450 c6         1 AIT       0.212400
      3 O3           2.2090     1.1280    -0.5700 os         1 AIT      -0.311900
      4 C4           3.4900     1.5540    -0.7180 ca         1 AIT       0.084100
      5 C5           3.8070     2.2270    -1.8930 ca         1 AIT      -0.105000
      6 C6           5.0920     2.6690    -2.1420 ca         1 AIT      -0.140000
      7 C7           6.0920     2.4510    -1.1950 ca         1 AIT       0.125100
      8 O8           7.3320     2.9070    -1.4720 oh         1 AIT      -0.495100
      9 C9           5.7860     1.7800    -0.0210 ca         1 AIT      -0.187000
     10 C10          4.4900     1.3230     0.2230 ca         1 AIT       0.003900
     11 S11          4.2070     0.4660     1.7320 ss         1 AIT      -0.233000
     12 C12          2.3310    -1.4530     0.9620 ca         1 AIT      -0.113300
     13 C13          3.0490    -1.8960    -0.1430 ca         1 AIT      -0.067500
     14 C14          2.8250    -3.1510    -0.6890 ca         1 AIT      -0.197500
     15 C15          1.8700    -3.9970    -0.1310 ca         1 AIT       0.142100
     16 O16          1.6090    -5.2250    -0.6210 oh         1 AIT      -0.495100
     17 C17          1.1550    -3.5730     0.9860 ca         1 AIT      -0.197500
     18 C18          1.3880    -2.3160     1.5150 ca         1 AIT      -0.067500
     19 C19          0.2430     0.6950     0.6530 ca         1 AIT      -0.134300
     20 C20         -0.6320     1.2260     1.5970 ca         1 AIT      -0.064500
     21 C21         -1.9840     0.9420     1.5630 ca         1 AIT      -0.199000
     22 C22         -2.5000     0.1110     0.5670 ca         1 AIT       0.156100
     23 C23         -1.6330    -0.4340    -0.3770 ca         1 AIT      -0.199000
     24 C24         -0.2770    -0.1420    -0.3260 ca         1 AIT      -0.064500
     25 O25         -3.8290    -0.0960     0.5900 os         1 AIT      -0.301900
     26 C26         -4.4070    -0.9600    -0.3700 c3         1 AIT       0.141400
     27 C27         -5.9140    -0.9790    -0.1730 c3         1 AIT       0.194500
     28 C28         -6.2790    -1.5440     1.1960 c3         1 AIT      -0.087100
     29 N29         -6.4930     0.3370    -0.3750 n3         1 AIT      -0.711600
     30 C30         -6.2130     0.9240    -1.6790 c5         1 AIT       0.160300
     31 C31         -7.2640     2.0310    -1.8590 c5         1 AIT      -0.080400
     32 C32         -8.2930     1.7730    -0.7460 c5         1 AIT      -0.080400
     33 C33         -7.9410     0.3800    -0.2450 c5         1 AIT       0.160300
     34 H1           2.0830    -0.0610     2.5500 h1         1 AIT       0.093700
     35 H2           1.8350     1.9580     1.2820 h1         1 AIT       0.062700
     36 H5           3.0260     2.4010    -2.6230 ha         1 AIT       0.149000
     37 H6           5.3210     3.1920    -3.0620 ha         1 AIT       0.151000
     38 HO8          7.9400     2.6920    -0.7560 ho         1 AIT       0.426000
     39 H9           6.5610     1.5960     0.7170 ha         1 AIT       0.141000
     40 H13          3.8120    -1.2730    -0.5920 ha         1 AIT       0.137500
     41 H14          3.4000    -3.4690    -1.5520 ha         1 AIT       0.139000
     42 H16          2.1710    -5.4090    -1.3820 ho         1 AIT       0.426000
     43 H17          0.4180    -4.2260     1.4350 ha         1 AIT       0.139000
     44 H18          0.8180    -1.9990     2.3810 ha         1 AIT       0.137500
     45 H20         -0.2530     1.8810     2.3740 ha         1 AIT       0.137500
     46 H21         -2.6510     1.3710     2.3000 ha         1 AIT       0.142000
     47 H23         -1.9900    -1.0880    -1.1610 ha         1 AIT       0.142000
     48 H24          0.3710    -0.5850    -1.0710 ha         1 AIT       0.137500
     49 H261        -4.0230    -1.9800    -0.2520 h1         1 AIT       0.035200
     50 H262        -4.1530    -0.6370    -1.3850 h1         1 AIT       0.035200
     51 H27         -6.2850    -1.6830    -0.9430 h1         1 AIT       0.020700
     52 H281        -6.0650    -0.8270     1.9880 hc         1 AIT       0.042700
     53 H282        -7.3360    -1.8030     1.2540 hc         1 AIT       0.042700
     54 H283        -5.7140    -2.4550     1.3980 hc         1 AIT       0.042700
     55 H301        -5.1950     1.3160    -1.7260 h1         1 AIT       0.034450
     56 H302        -6.3090     0.1780    -2.4850 h1         1 AIT       0.034450
     57 H311        -6.8230     3.0240    -1.7700 hc         1 AIT       0.047450
     58 H312        -7.7160     1.9710    -2.8490 hc         1 AIT       0.047450
     59 H321        -8.1770     2.4980     0.0600 hc         1 AIT       0.047450
     60 H322        -9.3240     1.8360    -1.0950 hc         1 AIT       0.047450
     61 H331        -8.4300    -0.3900    -0.8670 h1         1 AIT       0.034450
     62 H332        -8.2580     0.2170     0.7860 h1         1 AIT       0.034450
@<TRIPOS>BOND
     1     1     2 1   
     2     1    11 1   
     3     1    12 1   
     4     1    34 1   
     5     2     3 1   
     6     2    19 1   
     7     2    35 1   
     8     3     4 1   
     9     4     5 ar  
    10     4    10 ar  
    11     5     6 ar  
    12     5    36 1   
    13     6     7 ar  
    14     6    37 1   
    15     7     8 1   
    16     7     9 ar  
    17     8    38 1   
    18     9    10 ar  
    19     9    39 1   
    20    10    11 1   
    21    12    13 ar  
    22    12    18 ar  
    23    13    14 ar  
    24    13    40 1   
    25    14    15 ar  
    26    14    41 1   
    27    15    16 1   
    28    15    17 ar  
    29    16    42 1   
    30    17    18 ar  
    31    17    43 1   
    32    18    44 1   
    33    19    20 ar  
    34    19    24 ar  
    35    20    21 ar  
    36    20    45 1   
    37    21    22 ar  
    38    21    46 1   
    39    22    23 ar  
    40    22    25 1   
    41    23    24 ar  
    42    23    47 1   
    43    24    48 1   
    44    25    26 1   
    45    26    27 1   
    46    26    49 1   
    47    26    50 1   
    48    27    28 1   
    49    27    29 1   
    50    27    51 1   
    51    28    52 1   
    52    28    53 1   
    53    28    54 1   
    54    29    30 1   
    55    29    33 1   
    56    30    31 1   
    57    30    55 1   
    58    30    56 1   
    59    31    32 1   
    60    31    57 1   
    61    31    58 1   
    62    32    33 1   
    63    32    59 1   
    64    32    60 1   
    65    33    61 1   
    66    33    62 1   
@<TRIPOS>SUBSTRUCTURE
     1 AIT         1 TEMP              0 ****  ****    0 ROOT
