@<TRIPOS>MOLECULE
AIT
   62    66     1     0     0
SMALL
No Charge or Current Charge


@<TRIPOS>ATOM
      1 C1           2.5090     0.0250     1.5660 c6         1 AIT       0.090600
      2 C2           1.7400     1.0930     0.7550 c6         1 AIT       0.235600
      3 O3           2.2850     1.2680    -0.5710 os         1 AIT      -0.335100
      4 C4           3.6150     1.5910    -0.7510 ca         1 AIT       0.084100
      5 C5           3.9780     2.1680    -1.9800 ca         1 AIT      -0.087000
      6 C6           5.3140     2.5230    -2.2350 ca         1 AIT      -0.122000
      7 C7           6.2970     2.2940    -1.2610 ca         1 AIT       0.125100
      8 O8           7.5910     2.6400    -1.5130 oh         1 AIT      -0.534100
      9 C9           5.9490     1.7030    -0.0360 ca         1 AIT      -0.169000
     10 C10          4.6140     1.3420     0.2280 ca         1 AIT      -0.123000
     11 S11          4.2600     0.5430     1.7920 ss         1 AIT      -0.154000
     12 C12          2.3820    -1.4060     1.0080 ca         1 AIT      -0.113300
     13 C13          3.1290    -1.8360    -0.1100 ca         1 AIT      -0.049500
     14 C14          2.9770    -3.1430    -0.6060 ca         1 AIT      -0.179500
     15 C15          2.0790    -4.0280     0.0080 ca         1 AIT       0.142100
     16 O16          1.9270    -5.2950    -0.4680 oh         1 AIT      -0.534100
     17 C17          1.3330    -3.6100     1.1180 ca         1 AIT      -0.179500
     18 C18          1.4830    -2.3050     1.6180 ca         1 AIT      -0.049500
     19 C19          0.2400     0.7810     0.6440 ca         1 AIT      -0.134300
     20 C20         -0.6640     1.3610     1.5550 ca         1 AIT      -0.046500
     21 C21         -2.0360     1.0670     1.4750 ca         1 AIT      -0.181000
     22 C22         -2.5210     0.1930     0.4890 ca         1 AIT       0.156100
     23 C23         -1.6200    -0.3910    -0.4260 ca         1 AIT      -0.181000
     24 C24         -0.2470    -0.0970    -0.3470 ca         1 AIT      -0.046500
     25 O25         -3.8770    -0.0580     0.4630 os         1 AIT      -0.325100
     26 C26         -4.4760    -0.9410    -0.5090 c3         1 AIT       0.164600
     27 C27         -6.0190    -1.0140    -0.2750 c3         1 AIT       0.194500
     28 C28         -6.3180    -1.6900     1.0870 c3         1 AIT      -0.087100
     29 N29         -6.7270     0.2960    -0.4280 n3         1 AIT      -0.711600
     30 C30         -6.5260     0.9940    -1.7180 c5         1 AIT       0.160300
     31 C31         -7.4360     2.2360    -1.5470 c5         1 AIT      -0.080400
     32 C32         -8.5940     1.7270    -0.6340 c5         1 AIT      -0.080400
     33 C33         -8.2030     0.2580    -0.3170 c5         1 AIT       0.160300
     34 H1           2.0850     0.0200     2.5790 h1         1 AIT       0.093700
     35 H2           1.8500     2.0540     1.2790 h1         1 AIT       0.062700
     36 H5           3.2170     2.3480    -2.7350 ha         1 AIT       0.131000
     37 H6           5.5850     2.9760    -3.1850 ha         1 AIT       0.133000
     38 HO8          8.1340     2.4080    -0.7290 ho         1 AIT       0.465000
     39 H9           6.7120     1.5120     0.7140 ha         1 AIT       0.123000
     40 H13          3.8260    -1.1630    -0.6020 ha         1 AIT       0.119500
     41 H14          3.5600    -3.4570    -1.4690 ha         1 AIT       0.121000
     42 H16          2.5240    -5.4100    -1.2390 ho         1 AIT       0.465000
     43 H17          0.6360    -4.2950     1.5930 ha         1 AIT       0.121000
     44 H18          0.8910    -1.9910     2.4760 ha         1 AIT       0.119500
     45 H20         -0.3050     2.0370     2.3290 ha         1 AIT       0.119500
     46 H21         -2.7280     1.5170     2.1810 ha         1 AIT       0.124000
     47 H23         -1.9610    -1.0730    -1.1980 ha         1 AIT       0.124000
     48 H24          0.4390    -0.5590    -1.0540 ha         1 AIT       0.119500
     49 H261        -4.0540    -1.9500    -0.4180 h1         1 AIT       0.035200
     50 H262        -4.2750    -0.5870    -1.5270 h1         1 AIT       0.035200
     51 H27         -6.4050    -1.6940    -1.0460 h1         1 AIT       0.020700
     52 H281        -6.0500    -1.0280     1.9190 hc         1 AIT       0.042700
     53 H282        -7.3780    -1.9500     1.1770 hc         1 AIT       0.042700
     54 H283        -5.7440    -2.6190     1.1900 hc         1 AIT       0.042700
     55 H301        -5.4810     1.2840    -1.8900 h1         1 AIT       0.034450
     56 H302        -6.8550     0.3720    -2.5630 h1         1 AIT       0.034450
     57 H311        -6.8910     3.0550    -1.0620 hc         1 AIT       0.047450
     58 H312        -7.7950     2.6130    -2.5110 hc         1 AIT       0.047450
     59 H321        -8.6570     2.3230     0.2830 hc         1 AIT       0.047450
     60 H322        -9.5720     1.7850    -1.1250 hc         1 AIT       0.047450
     61 H331        -8.6390    -0.4340    -1.0520 h1         1 AIT       0.034450
     62 H332        -8.5510    -0.0410     0.6810 h1         1 AIT       0.034450
@<TRIPOS>BOND
     1     1     2 1   
     2     1    11 1   
     3     1    12 1   
     4     1    34 1   
     5     2     3 1   
     6     2    19 1   
     7     2    35 1   
     8     3     4 1   
     9     4     5 ar  
    10     4    10 ar  
    11     5     6 ar  
    12     5    36 1   
    13     6     7 ar  
    14     6    37 1   
    15     7     8 1   
    16     7     9 ar  
    17     8    38 1   
    18     9    10 ar  
    19     9    39 1   
    20    10    11 1   
    21    12    13 ar  
    22    12    18 ar  
    23    13    14 ar  
    24    13    40 1   
    25    14    15 ar  
    26    14    41 1   
    27    15    16 1   
    28    15    17 ar  
    29    16    42 1   
    30    17    18 ar  
    31    17    43 1   
    32    18    44 1   
    33    19    20 ar  
    34    19    24 ar  
    35    20    21 ar  
    36    20    45 1   
    37    21    22 ar  
    38    21    46 1   
    39    22    23 ar  
    40    22    25 1   
    41    23    24 ar  
    42    23    47 1   
    43    24    48 1   
    44    25    26 1   
    45    26    27 1   
    46    26    49 1   
    47    26    50 1   
    48    27    28 1   
    49    27    29 1   
    50    27    51 1   
    51    28    52 1   
    52    28    53 1   
    53    28    54 1   
    54    29    30 1   
    55    29    33 1   
    56    30    31 1   
    57    30    55 1   
    58    30    56 1   
    59    31    32 1   
    60    31    57 1   
    61    31    58 1   
    62    32    33 1   
    63    32    59 1   
    64    32    60 1   
    65    33    61 1   
    66    33    62 1   
@<TRIPOS>SUBSTRUCTURE
     1 AIT         1 TEMP              0 ****  ****    0 ROOT
