@<TRIPOS>MOLECULE
AIU
   65    69     1     0     0
SMALL
abcg2


@<TRIPOS>ATOM
      1 C1          -2.8870    -0.1290    -1.5330 c6         1 AIU       0.086600
      2 C2          -2.0630     0.9620    -0.8240 c6         1 AIU       0.235600
      3 O3          -2.5340     1.1790     0.4890 os         1 AIU      -0.334100
      4 C4          -3.7980     1.6540     0.6330 ca         1 AIU       0.084100
      5 C5          -4.0730     2.3950     1.7750 ca         1 AIU      -0.082000
      6 C6          -5.3400     2.8940     2.0190 ca         1 AIU      -0.181000
      7 C7          -6.3620     2.6630     1.1000 ca         1 AIU       0.123100
      8 O8          -7.6180     3.1270     1.2710 oh         1 AIU      -0.532100
      9 C9          -6.0960     1.9220    -0.0440 ca         1 AIU      -0.108000
     10 C10         -4.8220     1.4110    -0.2820 ca         1 AIU      -0.128000
     11 S11         -4.5910     0.4740    -1.7520 ss         1 AIU      -0.145000
     12 C12         -2.7970    -1.4780    -0.8770 ca         1 AIU      -0.112300
     13 C13         -3.5330    -1.8200     0.2550 ca         1 AIU      -0.049500
     14 C14         -3.3670    -3.0470     0.8750 ca         1 AIU      -0.179500
     15 C15         -2.4560    -3.9710     0.3670 ca         1 AIU       0.142100
     16 O16         -2.3330    -5.1510     1.0060 oh         1 AIU      -0.533100
     17 C17         -1.7230    -3.6490    -0.7700 ca         1 AIU      -0.179500
     18 C18         -1.8980    -2.4140    -1.3760 ca         1 AIU      -0.049500
     19 C19         -0.6090     0.5970    -0.7410 ca         1 AIU      -0.133300
     20 C20          0.2660     1.0470    -1.7270 ca         1 AIU      -0.047000
     21 C21          1.6030     0.6960    -1.7150 ca         1 AIU      -0.181000
     22 C22          2.1030    -0.1220    -0.7010 ca         1 AIU       0.154100
     23 C23          1.2370    -0.5780     0.2920 ca         1 AIU      -0.181000
     24 C24         -0.1040    -0.2200     0.2620 ca         1 AIU      -0.047000
     25 O25          3.4150    -0.4120    -0.7580 os         1 AIU      -0.327100
     26 C26          3.9540    -1.3290     0.1790 c3         1 AIU       0.163600
     27 C27          5.4230    -1.5180    -0.1230 c3         1 AIU       0.183800
     28 N28          6.1970    -0.3110     0.0060 n3         1 AIU      -0.730600
     29 C29          7.5710    -0.4360    -0.4770 c5         1 AIU       0.172800
     30 C30          8.4260     0.4650     0.4300 c5         1 AIU      -0.072700
     31 C31          9.4360     1.3130    -0.3240 c3         1 AIU      -0.080600
     32 C32          7.3940     1.2640     1.2340 c5         1 AIU      -0.072700
     33 C33          7.8950     1.7700     2.5740 c3         1 AIU      -0.080600
     34 C34          6.2410     0.2770     1.3300 c5         1 AIU       0.172800
     35 H1          -2.5020    -0.2030    -2.5540 h1         1 AIU       0.093700
     36 H2          -2.1610     1.8820    -1.4160 h1         1 AIU       0.062700
     37 H5          -3.2760     2.5800     2.4840 ha         1 AIU       0.129000
     38 H6          -5.5270     3.4680     2.9180 ha         1 AIU       0.117000
     39 HO8         -7.6820     3.6190     2.0970 ho         1 AIU       0.464000
     40 H9          -6.8950     1.7330    -0.7520 ha         1 AIU       0.139000
     41 H13         -4.2630    -1.1360     0.6670 ha         1 AIU       0.120000
     42 H14         -3.9490    -3.2940     1.7540 ha         1 AIU       0.121500
     43 H16         -1.6840    -5.7080     0.5610 ho         1 AIU       0.463000
     44 H17         -1.0140    -4.3560    -1.1870 ha         1 AIU       0.121500
     45 H18         -1.3120    -2.1770    -2.2560 ha         1 AIU       0.120000
     46 H20         -0.1020     1.6870    -2.5210 ha         1 AIU       0.121000
     47 H21          2.2690     1.0590    -2.4870 ha         1 AIU       0.124000
     48 H23          1.5850    -1.2120     1.0960 ha         1 AIU       0.124000
     49 H24         -0.7520    -0.5970     1.0420 ha         1 AIU       0.121000
     50 H261         3.4460    -2.2970     0.1050 h1         1 AIU       0.035200
     51 H262         3.8090    -0.9640     1.2030 h1         1 AIU       0.035200
     52 H271         5.5270    -1.8970    -1.1430 h1         1 AIU       0.038700
     53 H272         5.7850    -2.3210     0.5440 h1         1 AIU       0.038700
     54 H291         7.6320    -0.1330    -1.5280 h1         1 AIU       0.035950
     55 H292         7.9300    -1.4730    -0.4280 h1         1 AIU       0.035950
     56 H30          8.9660    -0.1750     1.1390 hc         1 AIU       0.055700
     57 H311         8.9330     1.9800    -1.0280 hc         1 AIU       0.034867
     58 H312        10.0290     1.9290     0.3540 hc         1 AIU       0.034867
     59 H313        10.1320     0.6940    -0.8920 hc         1 AIU       0.034867
     60 H32          7.0590     2.1170     0.6300 hc         1 AIU       0.055700
     61 H331         8.2580     0.9460     3.1920 hc         1 AIU       0.034867
     62 H332         8.7140     2.4790     2.4500 hc         1 AIU       0.034867
     63 H333         7.1060     2.2800     3.1280 hc         1 AIU       0.034867
     64 H341         5.2980     0.7670     1.5860 h1         1 AIU       0.035950
     65 H342         6.4440    -0.4680     2.1200 h1         1 AIU       0.035950
@<TRIPOS>BOND
     1     1     2 1   
     2     1    11 1   
     3     1    12 1   
     4     1    35 1   
     5     2     3 1   
     6     2    19 1   
     7     2    36 1   
     8     3     4 1   
     9     4     5 ar  
    10     4    10 ar  
    11     5     6 ar  
    12     5    37 1   
    13     6     7 ar  
    14     6    38 1   
    15     7     8 1   
    16     7     9 ar  
    17     8    39 1   
    18     9    10 ar  
    19     9    40 1   
    20    10    11 1   
    21    12    13 ar  
    22    12    18 ar  
    23    13    14 ar  
    24    13    41 1   
    25    14    15 ar  
    26    14    42 1   
    27    15    16 1   
    28    15    17 ar  
    29    16    43 1   
    30    17    18 ar  
    31    17    44 1   
    32    18    45 1   
    33    19    20 ar  
    34    19    24 ar  
    35    20    21 ar  
    36    20    46 1   
    37    21    22 ar  
    38    21    47 1   
    39    22    23 ar  
    40    22    25 1   
    41    23    24 ar  
    42    23    48 1   
    43    24    49 1   
    44    25    26 1   
    45    26    27 1   
    46    26    50 1   
    47    26    51 1   
    48    27    28 1   
    49    27    52 1   
    50    27    53 1   
    51    28    29 1   
    52    28    34 1   
    53    29    30 1   
    54    29    54 1   
    55    29    55 1   
    56    30    31 1   
    57    30    32 1   
    58    30    56 1   
    59    31    57 1   
    60    31    58 1   
    61    31    59 1   
    62    32    33 1   
    63    32    34 1   
    64    32    60 1   
    65    33    61 1   
    66    33    62 1   
    67    33    63 1   
    68    34    64 1   
    69    34    65 1   
@<TRIPOS>SUBSTRUCTURE
     1 AIU         1 TEMP              0 ****  ****    0 ROOT
