@<TRIPOS>MOLECULE
AIU
   65    69     1     0     0
SMALL
No Charge or Current Charge


@<TRIPOS>ATOM
      1 C1          -2.9000    -0.0200    -1.5850 c6         1 AIU       0.086600
      2 C2          -2.0190     1.0050    -0.8350 c6         1 AIU       0.235600
      3 O3          -2.5080     1.2710     0.4980 os         1 AIU      -0.334100
      4 C4          -3.8000     1.7140     0.7020 ca         1 AIU       0.084100
      5 C5          -4.0750     2.3630     1.9180 ca         1 AIU      -0.082000
      6 C6          -5.3680     2.8420     2.1980 ca         1 AIU      -0.181000
      7 C7          -6.3950     2.6650     1.2580 ca         1 AIU       0.123100
      8 O8          -7.6500     3.1250     1.5220 oh         1 AIU      -0.532100
      9 C9          -6.1330     2.0040     0.0480 ca         1 AIU      -0.108000
     10 C10         -4.8430     1.5190    -0.2400 ca         1 AIU      -0.128000
     11 S11         -4.6060     0.6400    -1.7840 ss         1 AIU      -0.145000
     12 C12         -2.8800    -1.4360    -0.9800 ca         1 AIU      -0.112300
     13 C13         -3.6240    -1.7610     0.1750 ca         1 AIU      -0.049500
     14 C14         -3.5700    -3.0580     0.7120 ca         1 AIU      -0.179500
     15 C15         -2.7750    -4.0400     0.1060 ca         1 AIU       0.142100
     16 O16         -2.7300    -5.2940     0.6360 oh         1 AIU      -0.533100
     17 C17         -2.0300    -3.7280    -1.0410 ca         1 AIU      -0.179500
     18 C18         -2.0830    -2.4320    -1.5820 ca         1 AIU      -0.049500
     19 C19         -0.5490     0.5680    -0.7520 ca         1 AIU      -0.133300
     20 C20          0.3750     1.0380    -1.7060 ca         1 AIU      -0.047000
     21 C21          1.7180     0.6310    -1.6500 ca         1 AIU      -0.181000
     22 C22          2.1560    -0.2480    -0.6470 ca         1 AIU       0.154100
     23 C23          1.2350    -0.7230     0.3100 ca         1 AIU      -0.181000
     24 C24         -0.1090    -0.3150     0.2570 ca         1 AIU      -0.047000
     25 O25          3.4860    -0.6130    -0.6460 os         1 AIU      -0.327100
     26 C26          4.0370    -1.5040     0.3450 c3         1 AIU       0.163600
     27 C27          5.5530    -1.6980     0.0700 c3         1 AIU       0.183800
     28 N28          6.3930    -0.4730     0.1620 n3         1 AIU      -0.730600
     29 C29          7.8230    -0.6500    -0.2060 c5         1 AIU       0.172800
     30 C30          8.5570     0.5510     0.4800 c5         1 AIU      -0.072700
     31 C31          9.4930     1.3570    -0.4490 c3         1 AIU      -0.080600
     32 C32          7.3880     1.3760     1.1000 c5         1 AIU      -0.072700
     33 C33          7.7870     2.2880     2.2820 c3         1 AIU      -0.080600
     34 C34          6.4120     0.2330     1.4610 c5         1 AIU       0.172800
     35 H1          -2.5080    -0.0960    -2.6090 h1         1 AIU       0.093700
     36 H2          -2.0620     1.9540    -1.3890 h1         1 AIU       0.062700
     37 H5          -3.2780     2.5010     2.6450 ha         1 AIU       0.129000
     38 H6          -5.5610     3.3470     3.1410 ha         1 AIU       0.117000
     39 HO8         -7.6460     3.5530     2.4050 ho         1 AIU       0.464000
     40 H9          -6.9390     1.8590    -0.6680 ha         1 AIU       0.139000
     41 H13         -4.2440    -1.0140     0.6630 ha         1 AIU       0.120000
     42 H14         -4.1460    -3.3000     1.6020 ha         1 AIU       0.121500
     43 H16         -2.1310    -5.8410     0.0850 ho         1 AIU       0.463000
     44 H17         -1.4080    -4.4820    -1.5180 ha         1 AIU       0.121500
     45 H18         -1.4940    -2.1990    -2.4680 ha         1 AIU       0.120000
     46 H20          0.0530     1.7170    -2.4930 ha         1 AIU       0.121000
     47 H21          2.4260     0.9970    -2.3890 ha         1 AIU       0.124000
     48 H23          1.5390    -1.4060     1.0980 ha         1 AIU       0.124000
     49 H24         -0.8110    -0.6930     0.9970 ha         1 AIU       0.121000
     50 H261         3.5420    -2.4820     0.2950 h1         1 AIU       0.035200
     51 H262         3.8960    -1.1000     1.3550 h1         1 AIU       0.035200
     52 H271         5.6560    -2.1350    -0.9320 h1         1 AIU       0.038700
     53 H272         5.9270    -2.4490     0.7790 h1         1 AIU       0.038700
     54 H291         7.9520    -0.6450    -1.2970 h1         1 AIU       0.035950
     55 H292         8.2220    -1.6020     0.1720 h1         1 AIU       0.035950
     56 H30          9.1950     0.1570     1.2810 hc         1 AIU       0.055700
     57 H311         8.9390     1.7960    -1.2870 hc         1 AIU       0.034867
     58 H312         9.9840     2.1730     0.0940 hc         1 AIU       0.034867
     59 H313        10.2780     0.7150    -0.8660 hc         1 AIU       0.034867
     60 H32          6.9320     2.0290     0.3450 hc         1 AIU       0.055700
     61 H331         8.2550     1.7110     3.0890 hc         1 AIU       0.034867
     62 H332         8.4980     3.0600     1.9640 hc         1 AIU       0.034867
     63 H333         6.9090     2.7950     2.6990 hc         1 AIU       0.034867
     64 H341         5.4230     0.6150     1.7480 h1         1 AIU       0.035950
     65 H342         6.7960    -0.4020     2.2730 h1         1 AIU       0.035950
@<TRIPOS>BOND
     1     1     2 1   
     2     1    11 1   
     3     1    12 1   
     4     1    35 1   
     5     2     3 1   
     6     2    19 1   
     7     2    36 1   
     8     3     4 1   
     9     4     5 ar  
    10     4    10 ar  
    11     5     6 ar  
    12     5    37 1   
    13     6     7 ar  
    14     6    38 1   
    15     7     8 1   
    16     7     9 ar  
    17     8    39 1   
    18     9    10 ar  
    19     9    40 1   
    20    10    11 1   
    21    12    13 ar  
    22    12    18 ar  
    23    13    14 ar  
    24    13    41 1   
    25    14    15 ar  
    26    14    42 1   
    27    15    16 1   
    28    15    17 ar  
    29    16    43 1   
    30    17    18 ar  
    31    17    44 1   
    32    18    45 1   
    33    19    20 ar  
    34    19    24 ar  
    35    20    21 ar  
    36    20    46 1   
    37    21    22 ar  
    38    21    47 1   
    39    22    23 ar  
    40    22    25 1   
    41    23    24 ar  
    42    23    48 1   
    43    24    49 1   
    44    25    26 1   
    45    26    27 1   
    46    26    50 1   
    47    26    51 1   
    48    27    28 1   
    49    27    52 1   
    50    27    53 1   
    51    28    29 1   
    52    28    34 1   
    53    29    30 1   
    54    29    54 1   
    55    29    55 1   
    56    30    31 1   
    57    30    32 1   
    58    30    56 1   
    59    31    57 1   
    60    31    58 1   
    61    31    59 1   
    62    32    33 1   
    63    32    34 1   
    64    32    60 1   
    65    33    61 1   
    66    33    62 1   
    67    33    63 1   
    68    34    64 1   
    69    34    65 1   
@<TRIPOS>SUBSTRUCTURE
     1 AIU         1 TEMP              0 ****  ****    0 ROOT
