@<TRIPOS>MOLECULE
AIW
   16    16     1     0     0
SMALL
bcc


@<TRIPOS>ATOM
      1 C1          -6.4570     2.6080    15.8590 ca         1 AIW      -0.090300
      2 C2          -6.4510     3.8340    16.5200 ca         1 AIW      -0.107000
      3 C3          -5.9760     4.9750    15.8890 ca         1 AIW      -0.130000
      4 C5          -5.4950     3.6840    13.9220 ca         1 AIW      -0.130000
      5 C6          -5.9710     2.5450    14.5540 ca         1 AIW      -0.107000
      6 SE          -5.3840     0.5120    17.4100 sh         1 AIW      -0.509900
      7 C           -6.9420     1.3730    16.5490 c3         1 AIW       0.152000
      8 C4          -5.4950     4.9030    14.5880 ca         1 AIW      -0.118000
      9 H1          -6.8260     3.8950    17.5350 ha         1 AIW       0.133000
     10 H2          -5.9840     5.9210    16.4140 ha         1 AIW       0.132000
     11 H3          -5.1230     3.6210    12.9070 ha         1 AIW       0.132000
     12 H4          -5.9680     1.5960    14.0290 ha         1 AIW       0.133000
     13 H5          -6.1250    -0.5910    18.0090 hs         1 AIW       0.250800
     14 H6          -7.6780     1.6090    17.3180 h1         1 AIW       0.063200
     15 H7          -7.3840     0.6690    15.8440 h1         1 AIW       0.063200
     16 H8          -5.1240     5.7920    14.0960 ha         1 AIW       0.131000
@<TRIPOS>BOND
     1     1     2 ar  
     2     1     5 ar  
     3     1     7 1   
     4     2     3 ar  
     5     2     9 1   
     6     3     8 ar  
     7     3    10 1   
     8     4     5 ar  
     9     4     8 ar  
    10     4    11 1   
    11     5    12 1   
    12     6     7 1   
    13     6    13 1   
    14     7    14 1   
    15     7    15 1   
    16     8    16 1   
@<TRIPOS>SUBSTRUCTURE
     1 AIW         1 TEMP              0 ****  ****    0 ROOT
