@<TRIPOS>MOLECULE
AIW
   16    16     1     0     0
SMALL
No Charge or Current Charge


@<TRIPOS>ATOM
      1 C1          -6.4170     2.5890    15.8760 ca         1 AIW      -0.090300
      2 C2          -6.4250     3.8280    16.5480 ca         1 AIW      -0.089000
      3 C3          -5.9730     4.9900    15.8990 ca         1 AIW      -0.112000
      4 C5          -5.4990     3.6890    13.8990 ca         1 AIW      -0.112000
      5 C6          -5.9500     2.5260    14.5480 ca         1 AIW      -0.089000
      6 SE          -5.4810     0.5190    17.4460 sh         1 AIW      -0.557800
      7 C           -6.9100     1.3300    16.5790 c3         1 AIW       0.199900
      8 C4          -5.5110     4.9210    14.5730 ca         1 AIW      -0.100000
      9 H1          -6.7790     3.8900    17.5750 ha         1 AIW       0.115000
     10 H2          -5.9810     5.9430    16.4220 ha         1 AIW       0.114000
     11 H3          -5.1400     3.6340    12.8730 ha         1 AIW       0.114000
     12 H4          -5.9360     1.5750    14.0190 ha         1 AIW       0.115000
     13 H5          -6.1980    -0.5190    17.9510 hs         1 AIW       0.250800
     14 H6          -7.6850     1.5830    17.3140 h1         1 AIW       0.063200
     15 H7          -7.3380     0.6290    15.8490 h1         1 AIW       0.063200
     16 H8          -5.1610     5.8210    14.0710 ha         1 AIW       0.113000
@<TRIPOS>BOND
     1     1     2 ar  
     2     1     5 ar  
     3     1     7 1   
     4     2     3 ar  
     5     2     9 1   
     6     3     8 ar  
     7     3    10 1   
     8     4     5 ar  
     9     4     8 ar  
    10     4    11 1   
    11     5    12 1   
    12     6     7 1   
    13     6    13 1   
    14     7    14 1   
    15     7    15 1   
    16     8    16 1   
@<TRIPOS>SUBSTRUCTURE
     1 AIW         1 TEMP              0 ****  ****    0 ROOT
