@<TRIPOS>MOLECULE
AIX
   44    45     1     0     0
SMALL
abcg2


@<TRIPOS>ATOM
      1 C8          16.1970     1.0370     6.3480 ca         1 AIX      -0.110000
      2 C5          15.8100    -0.4030     8.2530 ca         1 AIX      -0.098300
      3 C6          15.3860    -3.2130     4.4700 c5         1 AIX       0.140000
      4 N1          16.7420    -3.4250     8.2310 ns         1 AIX      -0.470900
      5 N3          17.3560    -4.2230     5.5480 n7         1 AIX      -0.861400
      6 C4          16.3500    -1.3120     9.3420 c3         1 AIX       0.140800
      7 C3          15.9240    -2.7680     9.0770 c          1 AIX       0.607100
      8 C7          16.6780     0.1780     7.3320 ca         1 AIX      -0.083000
      9 C9          14.8390     1.3210     6.2760 ca         1 AIX      -0.109000
     10 C10         13.9630     0.7350     7.1870 ca         1 AIX      -0.110000
     11 C11         14.4450    -0.1230     8.1680 ca         1 AIX      -0.083000
     12 C12         16.8450    -2.9820     4.9730 c5         1 AIX       0.029500
     13 C13         16.3510    -4.9420     6.3000 c5         1 AIX       0.349500
     14 C14         16.5490    -4.7890     7.8250 c3         1 AIX       0.009700
     15 C15         17.7010    -5.6740     8.2560 c          1 AIX       0.570900
     16 N2          15.8600    -0.8890    10.6530 n8         1 AIX      -0.984200
     17 O3          14.9260    -3.2740     9.5790 o          1 AIX      -0.602100
     18 O4          18.6650    -5.2980     8.8780 o          1 AIX      -0.525100
     19 S1          14.6870    -4.2920     5.8020 ss         1 AIX      -0.586000
     20 H8          16.8850     1.4820     5.6400 ha         1 AIX       0.114500
     21 HN1         17.5770    -2.9650     7.9050 hn         1 AIX       0.337500
     22 HN3         17.7300    -4.7810     4.7890 hn         1 AIX       0.455000
     23 H4          17.4440    -1.2870     9.2720 h1         1 AIX       0.026700
     24 H1          14.2990    -4.2000     2.8820 hc         1 AIX       0.040867
     25 H1A         15.7230    -3.3050     2.3340 hc         1 AIX       0.040867
     26 H1B         15.9150    -4.8640     3.1480 hc         1 AIX       0.040867
     27 H7          17.7380    -0.0360     7.3910 ha         1 AIX       0.122500
     28 H9          14.4620     1.9880     5.5110 ha         1 AIX       0.105000
     29 H10         12.9020     0.9450     7.1300 ha         1 AIX       0.114500
     30 H11         13.7650    -0.5730     8.8790 ha         1 AIX       0.122500
     31 H12         16.8000    -2.2090     5.7390 h1         1 AIX       0.066700
     32 H13         16.3980    -6.0040     6.0610 h2         1 AIX       0.052700
     33 H14         15.6600    -5.1750     8.3320 h1         1 AIX       0.099700
     34 H15         17.5990    -6.7300     7.9470 h4         1 AIX      -0.021800
     35 H16         14.6220    -1.3950     5.3700 hc         1 AIX       0.040867
     36 H16A        14.9990    -1.2650     3.6480 hc         1 AIX       0.040867
     37 H16B        13.5390    -2.1170     4.1680 hc         1 AIX       0.040867
     38 HN2         16.2400    -1.4920    11.3760 hn         1 AIX       0.397000
     39 HN2A        16.1970     0.0490    10.8410 hn         1 AIX       0.397000
     40 C1          15.3310    -3.9450     3.1280 c3         1 AIX      -0.070600
     41 C2          17.7810    -2.4830     3.8440 c          1 AIX       0.720000
     42 O1          18.5150    -3.3370     3.2900 o          1 AIX      -0.719500
     43 O2          17.7080    -1.2610     3.5660 o          1 AIX      -0.719500
     44 C16         14.5840    -1.9190     4.4170 c3         1 AIX      -0.070600
@<TRIPOS>BOND
     1     1     8 ar  
     2     1     9 ar  
     3     1    20 1   
     4     2     6 1   
     5     2     8 ar  
     6     2    11 ar  
     7     3    12 1   
     8     3    19 1   
     9     3    40 1   
    10     3    44 1   
    11     4     7 1   
    12     4    14 1   
    13     4    21 1   
    14     5    12 1   
    15     5    13 1   
    16     5    22 1   
    17     6     7 1   
    18     6    16 1   
    19     6    23 1   
    20     7    17 2   
    21     8    27 1   
    22     9    10 ar  
    23     9    28 1   
    24    10    11 ar  
    25    10    29 1   
    26    11    30 1   
    27    12    31 1   
    28    12    41 1   
    29    13    14 1   
    30    13    19 1   
    31    13    32 1   
    32    14    15 1   
    33    14    33 1   
    34    15    18 2   
    35    15    34 1   
    36    16    38 1   
    37    16    39 1   
    38    24    40 1   
    39    25    40 1   
    40    26    40 1   
    41    35    44 1   
    42    36    44 1   
    43    37    44 1   
    44    41    42 1   
    45    41    43 1   
@<TRIPOS>SUBSTRUCTURE
     1 AIX         1 TEMP              0 ****  ****    0 ROOT
