@<TRIPOS>MOLECULE
AIX
   44    45     1     0     0
SMALL
No Charge or Current Charge


@<TRIPOS>ATOM
      1 C8          16.0460     1.1540     6.2440 ca         1 AIX      -0.110000
      2 C5          15.6810    -0.3040     8.1720 ca         1 AIX      -0.098300
      3 C6          15.5120    -3.2680     4.5600 c5         1 AIX       0.140000
      4 N1          16.7620    -3.5100     8.2610 ns         1 AIX      -0.470900
      5 N3          17.3800    -4.6130     5.4080 n7         1 AIX      -0.861400
      6 C4          16.2270    -1.2720     9.2210 c3         1 AIX       0.140800
      7 C3          15.7940    -2.7560     8.8940 c          1 AIX       0.607100
      8 C7          16.5460     0.2720     7.2180 ca         1 AIX      -0.083000
      9 C9          14.6770     1.4680     6.2150 ca         1 AIX      -0.109000
     10 C10         13.8070     0.8980     7.1600 ca         1 AIX      -0.110000
     11 C11         14.3070     0.0150     8.1330 ca         1 AIX      -0.083000
     12 C12         16.9930    -3.1910     5.0550 c5         1 AIX       0.029500
     13 C13         16.3520    -5.1750     6.3100 c5         1 AIX       0.349500
     14 C14         16.6120    -4.9290     7.8260 c3         1 AIX       0.009700
     15 C15         17.8400    -5.7570     8.2560 c          1 AIX       0.570900
     16 N2          15.9200    -0.7710    10.6030 n8         1 AIX      -0.984200
     17 O3          14.7020    -3.2260     9.2000 o          1 AIX      -0.602100
     18 O4          18.8100    -5.3030     8.8590 o          1 AIX      -0.525100
     19 S1          14.7300    -4.4740     5.7350 ss         1 AIX      -0.586000
     20 H8          16.7200     1.5900     5.5110 ha         1 AIX       0.114500
     21 HN1         17.6430    -3.0490     8.0670 hn         1 AIX       0.337500
     22 HN3         17.3680    -5.1560     4.5360 hn         1 AIX       0.455000
     23 H4          17.3230    -1.2560     9.1440 h1         1 AIX       0.026700
     24 H1          14.2560    -3.9880     2.9030 hc         1 AIX       0.040867
     25 H1A         15.7020    -3.1320     2.3660 hc         1 AIX       0.040867
     26 H1B         15.8290    -4.7850     2.9880 hc         1 AIX       0.040867
     27 H7          17.6080     0.0350     7.2270 ha         1 AIX       0.122500
     28 H9          14.2900     2.1490     5.4600 ha         1 AIX       0.105000
     29 H10         12.7470     1.1380     7.1370 ha         1 AIX       0.114500
     30 H11         13.6260    -0.4240     8.8600 ha         1 AIX       0.122500
     31 H12         17.0470    -2.5560     5.9460 h1         1 AIX       0.066700
     32 H13         16.3030    -6.2630     6.1670 h2         1 AIX       0.052700
     33 H14         15.7660    -5.3730     8.3640 h1         1 AIX       0.099700
     34 H15         17.7970    -6.8360     7.9870 h4         1 AIX      -0.021800
     35 H16         14.7900    -1.5550     5.7140 hc         1 AIX       0.040867
     36 H16A        15.2060    -1.1530     4.0420 hc         1 AIX       0.040867
     37 H16B        13.7070    -2.0240     4.4020 hc         1 AIX       0.040867
     38 HN2         16.4060    -1.3570    11.2930 hn         1 AIX       0.397000
     39 HN2A        16.3450     0.1560    10.7220 hn         1 AIX       0.397000
     40 C1          15.3180    -3.8250     3.1230 c3         1 AIX      -0.070600
     41 C2          17.8870    -2.4720     3.9620 c          1 AIX       0.720000
     42 O1          18.4320    -3.1410     3.0910 o          1 AIX      -0.719500
     43 O2          18.1150    -1.2760     4.0810 o          1 AIX      -0.719500
     44 C16         14.7610    -1.9220     4.6840 c3         1 AIX      -0.070600
@<TRIPOS>BOND
     1     1     8 ar  
     2     1     9 ar  
     3     1    20 1   
     4     2     6 1   
     5     2     8 ar  
     6     2    11 ar  
     7     3    12 1   
     8     3    19 1   
     9     3    40 1   
    10     3    44 1   
    11     4     7 1   
    12     4    14 1   
    13     4    21 1   
    14     5    12 1   
    15     5    13 1   
    16     5    22 1   
    17     6     7 1   
    18     6    16 1   
    19     6    23 1   
    20     7    17 2   
    21     8    27 1   
    22     9    10 ar  
    23     9    28 1   
    24    10    11 ar  
    25    10    29 1   
    26    11    30 1   
    27    12    31 1   
    28    12    41 1   
    29    13    14 1   
    30    13    19 1   
    31    13    32 1   
    32    14    15 1   
    33    14    33 1   
    34    15    18 2   
    35    15    34 1   
    36    16    38 1   
    37    16    39 1   
    38    24    40 1   
    39    25    40 1   
    40    26    40 1   
    41    35    44 1   
    42    36    44 1   
    43    37    44 1   
    44    41    42 1   
    45    41    43 1   
@<TRIPOS>SUBSTRUCTURE
     1 AIX         1 TEMP              0 ****  ****    0 ROOT
