@<TRIPOS>MOLECULE
AIY
   41    43     1     0     0
SMALL
No Charge or Current Charge


@<TRIPOS>ATOM
      1 C10         15.3050    -2.8200    26.4770 ca         1 AIY       0.291100
      2 C13         12.8920    -1.5800    27.3030 ca         1 AIY      -0.250600
      3 C15         16.4770    -1.5390    20.8210 c          1 AIY       0.634300
      4 C20         15.2360    -4.4200    28.4860 c3         1 AIY      -0.039800
      5 C22         11.6150    -0.9010    27.6850 c          1 AIY       0.607700
      6 C1          15.2890    -1.0210    24.5140 c5         1 AIY      -0.107500
      7 C2          14.0320    -0.2150    24.2100 c2         1 AIY       0.178900
      8 C3          13.8480     0.2510    22.9700 ce         1 AIY      -0.307000
      9 C4          14.7550    -0.1000    21.8980 ce         1 AIY       0.372100
     10 C5          15.6360    -1.1360    21.9910 cf         1 AIY      -0.534400
     11 C6          15.7100    -1.8800    23.2880 c          1 AIY       0.661300
     12 C7          14.7520    -1.7650    25.7430 ca         1 AIY      -0.306300
     13 C8          13.5710    -1.1810    26.1520 ca         1 AIY       0.210100
     14 C11         14.6560    -3.2630    27.6550 ca         1 AIY      -0.253300
     15 C12         13.4490    -2.6320    28.0560 ca         1 AIY       0.244100
     16 C16         17.5590    -2.6090    20.9450 c3         1 AIY      -0.172100
     17 C23         11.4770    -0.3170    29.0920 c3         1 AIY      -0.181100
     18 C25         16.4630    -0.0840    24.9060 c3         1 AIY      -0.072100
     19 O9          13.1830    -0.2090    25.2810 os         1 AIY      -0.167200
     20 O14         14.5870     0.6060    20.7690 oh         1 AIY      -0.534100
     21 O17         16.3240    -0.9710    19.7460 o          1 AIY      -0.609100
     22 O18         16.1180    -3.0280    23.3940 o          1 AIY      -0.586100
     23 O19         16.4380    -3.4200    26.0270 oh         1 AIY      -0.544100
     24 O21         12.7920    -3.0800    29.1620 oh         1 AIY      -0.529100
     25 O24         10.7030    -0.7830    26.8750 o          1 AIY      -0.518100
     26 H1          15.3640    -4.1310    29.5360 hc         1 AIY       0.047033
     27 H2          14.5780    -5.2970    28.4530 hc         1 AIY       0.047033
     28 H3          16.2210    -4.7500    28.1370 hc         1 AIY       0.047033
     29 H5          12.9560     0.8170    22.7100 ha         1 AIY       0.237000
     30 H9          18.2010    -2.6510    20.0580 hc         1 AIY       0.072367
     31 H10         18.1400    -2.4480    21.8590 hc         1 AIY       0.072367
     32 H11         17.0790    -3.5790    21.1080 hc         1 AIY       0.072367
     33 H12         10.7760     0.5250    29.1150 hc         1 AIY       0.061700
     34 H13         11.1030    -1.1020    29.7570 hc         1 AIY       0.061700
     35 H14         12.4620    -0.0560    29.4930 hc         1 AIY       0.061700
     36 H15         16.1910     0.5620    25.7490 hc         1 AIY       0.056700
     37 H16         17.3490    -0.6590    25.2030 hc         1 AIY       0.056700
     38 H17         16.7550     0.5670    24.0730 hc         1 AIY       0.056700
     39 H18         15.2200     0.1610    20.1440 ho         1 AIY       0.558000
     40 H19         16.4340    -3.3120    25.0430 ho         1 AIY       0.523000
     41 H20         13.2970    -3.8360    29.5260 ho         1 AIY       0.482000
@<TRIPOS>BOND
     1     1    12 ar  
     2     1    14 ar  
     3     1    23 1   
     4     2     5 1   
     5     2    13 ar  
     6     2    15 ar  
     7     3    10 1   
     8     3    16 1   
     9     3    21 2   
    10     4    14 1   
    11     4    26 1   
    12     4    27 1   
    13     4    28 1   
    14     5    17 1   
    15     5    25 2   
    16     6     7 1   
    17     6    11 1   
    18     6    12 1   
    19     6    18 1   
    20     7     8 2   
    21     7    19 1   
    22     8     9 1   
    23     8    29 1   
    24     9    10 2   
    25     9    20 1   
    26    10    11 1   
    27    11    22 2   
    28    12    13 ar  
    29    13    19 1   
    30    14    15 ar  
    31    15    24 1   
    32    16    30 1   
    33    16    31 1   
    34    16    32 1   
    35    17    33 1   
    36    17    34 1   
    37    17    35 1   
    38    18    36 1   
    39    18    37 1   
    40    18    38 1   
    41    20    39 1   
    42    23    40 1   
    43    24    41 1   
@<TRIPOS>SUBSTRUCTURE
     1 AIY         1 TEMP              0 ****  ****    0 ROOT
