@<TRIPOS>MOLECULE
AIY
   41    43     1     0     0
SMALL
bcc


@<TRIPOS>ATOM
      1 C10         15.2880    -2.9050    26.4430 ca         1 AIY       0.291100
      2 C13         12.9220    -1.5370    27.2700 ca         1 AIY      -0.250600
      3 C15         16.4730    -1.5010    20.8560 c          1 AIY       0.634300
      4 C20         15.1730    -4.3940    28.4880 c3         1 AIY      -0.039800
      5 C22         11.7100    -0.7740    27.6600 c          1 AIY       0.607700
      6 C1          15.2570    -1.1080    24.4960 c5         1 AIY      -0.107500
      7 C2          14.0380    -0.3230    24.1570 c2         1 AIY       0.178900
      8 C3          13.8210     0.2330    22.9600 ce         1 AIY      -0.257000
      9 C4          14.7260    -0.1340    21.9090 ce         1 AIY       0.372100
     10 C5          15.7040    -1.1560    22.0350 cf         1 AIY      -0.534400
     11 C6          15.8570    -1.8190    23.3040 c          1 AIY       0.661300
     12 C7          14.7330    -1.8930    25.6640 ca         1 AIY      -0.306300
     13 C8          13.5750    -1.2740    26.0770 ca         1 AIY       0.210100
     14 C11         14.6520    -3.2670    27.6390 ca         1 AIY      -0.253300
     15 C12         13.5040    -2.5720    28.0340 ca         1 AIY       0.244100
     16 C16         17.5180    -2.5730    20.8690 c3         1 AIY      -0.172100
     17 C23         11.4750    -0.4390    29.1100 c3         1 AIY      -0.181100
     18 C25         16.3590    -0.1140    24.9790 c3         1 AIY      -0.072100
     19 O9          13.1880    -0.2960    25.1880 os         1 AIY      -0.167200
     20 O14         14.5450     0.4690    20.7810 oh         1 AIY      -0.495100
     21 O17         16.2820    -0.8820    19.7950 o          1 AIY      -0.609100
     22 O18         16.5140    -2.8360    23.4990 o          1 AIY      -0.586100
     23 O19         16.4000    -3.5390    26.0830 oh         1 AIY      -0.505100
     24 O21         12.8590    -2.9050    29.1590 oh         1 AIY      -0.490100
     25 O24         10.9440    -0.3780    26.8060 o          1 AIY      -0.518100
     26 H1          15.5180    -4.0480    29.4650 hc         1 AIY       0.047033
     27 H2          14.4130    -5.1610    28.6580 hc         1 AIY       0.047033
     28 H3          16.0160    -4.8930    28.0180 hc         1 AIY       0.047033
     29 H5          12.9620     0.8490    22.7330 ha         1 AIY       0.187000
     30 H9          18.0300    -2.5840    19.9090 hc         1 AIY       0.072367
     31 H10         18.2450    -2.4110    21.6630 hc         1 AIY       0.072367
     32 H11         17.0700    -3.5510    21.0430 hc         1 AIY       0.072367
     33 H12         10.9070     0.4890    29.1690 hc         1 AIY       0.061700
     34 H13         10.8840    -1.2210    29.5890 hc         1 AIY       0.061700
     35 H14         12.4000    -0.3340    29.6730 hc         1 AIY       0.061700
     36 H15         15.9820     0.4810    25.8080 hc         1 AIY       0.056700
     37 H16         17.2250    -0.6770    25.3240 hc         1 AIY       0.056700
     38 H17         16.6650     0.5520    24.1740 hc         1 AIY       0.056700
     39 H18         15.2220     0.0540    20.1240 ho         1 AIY       0.519000
     40 H19         16.5990    -3.3370    25.1380 ho         1 AIY       0.484000
     41 H20         13.3370    -3.5780    29.6590 ho         1 AIY       0.443000
@<TRIPOS>BOND
     1     1    12 ar  
     2     1    14 ar  
     3     1    23 1   
     4     2     5 1   
     5     2    13 ar  
     6     2    15 ar  
     7     3    10 1   
     8     3    16 1   
     9     3    21 2   
    10     4    14 1   
    11     4    26 1   
    12     4    27 1   
    13     4    28 1   
    14     5    17 1   
    15     5    25 2   
    16     6     7 1   
    17     6    11 1   
    18     6    12 1   
    19     6    18 1   
    20     7     8 2   
    21     7    19 1   
    22     8     9 1   
    23     8    29 1   
    24     9    10 2   
    25     9    20 1   
    26    10    11 1   
    27    11    22 2   
    28    12    13 ar  
    29    13    19 1   
    30    14    15 ar  
    31    15    24 1   
    32    16    30 1   
    33    16    31 1   
    34    16    32 1   
    35    17    33 1   
    36    17    34 1   
    37    17    35 1   
    38    18    36 1   
    39    18    37 1   
    40    18    38 1   
    41    20    39 1   
    42    23    40 1   
    43    24    41 1   
@<TRIPOS>SUBSTRUCTURE
     1 AIY         1 TEMP              0 ****  ****    0 ROOT
