@<TRIPOS>MOLECULE
AIZ
   60    63     1     0     0
SMALL
No Charge or Current Charge


@<TRIPOS>ATOM
      1 C1          -0.2490     0.3110    -1.1540 cc         1 AIZ       0.450500
      2 C2          -1.5370     0.3050    -0.4940 ca         1 AIZ      -0.244900
      3 C3           0.9650     0.9550    -0.6310 ca         1 AIZ      -0.129900
      4 N4          -0.2820    -0.3670    -2.3150 nd         1 AIZ      -0.528100
      5 C5          -2.3650    -0.3770    -1.3280 ca         1 AIZ      -0.013200
      6 C6          -1.9700     0.7620     0.7600 ca         1 AIZ       0.023000
      7 C7           2.2290     0.3700    -0.8510 ca         1 AIZ      -0.117000
      8 C8           0.8930     2.2120     0.0040 ca         1 AIZ      -0.081000
      9 N9          -1.6180    -0.7750    -2.4140 na         1 AIZ      -0.072400
     10 C10         -3.7050    -0.6230    -1.0140 ca         1 AIZ      -0.216000
     11 C11         -3.3220     0.5370     1.1030 ca         1 AIZ      -0.216000
     12 C12          3.4060     0.9980    -0.3910 ca         1 AIZ      -0.074000
     13 C13          2.0570     2.8630     0.4730 ca         1 AIZ      -0.124600
     14 C14         -4.1930    -0.1330     0.2160 ca         1 AIZ       0.346000
     15 C15          3.3070     2.2340     0.2730 ca         1 AIZ      -0.120000
     16 N16          4.7100     0.4500    -0.5620 ns         1 AIZ      -0.140000
     17 C17          1.9640     4.2140     1.1700 c          1 AIZ       0.715600
     18 N18         -5.5090    -0.3490     0.6130 nu         1 AIZ      -0.989000
     19 C19          5.1700    -0.7240    -1.1490 c          1 AIZ       0.600100
     20 O20          2.9970     4.7650     1.5230 o          1 AIZ      -0.717500
     21 C21         -6.7090    -0.5970    -0.0740 ca         1 AIZ       0.340000
     22 C22          6.6960    -0.8910    -1.1070 c3         1 AIZ      -0.165400
     23 O23          4.4530    -1.5610    -1.6880 o          1 AIZ      -0.594100
     24 C24         -7.7920    -1.2250     0.5880 ca         1 AIZ       0.051000
     25 C25         -6.8740    -0.1850    -1.4110 ca         1 AIZ      -0.152000
     26 C26          7.1230    -1.9730    -0.0850 c3         1 AIZ      -0.064400
     27 C27         -9.0000    -1.4630    -0.0920 ca         1 AIZ      -0.073000
     28 Cl28        -7.6580    -1.7310     2.2790 cl         1 AIZ      -0.216000
     29 C29         -8.0820    -0.4220    -2.0900 ca         1 AIZ      -0.078000
     30 C30          8.6570    -2.1650    -0.0180 c3         1 AIZ       0.162800
     31 C31         -9.1430    -1.0650    -1.4320 ca         1 AIZ      -0.148000
     32 N32          9.1090    -3.2910     0.8370 n3         1 AIZ      -0.711600
     33 C33         10.5520    -3.5710     0.6650 c3         1 AIZ       0.151100
     34 C34          8.7440    -3.1460     2.2660 c3         1 AIZ       0.151100
     35 O35          0.8580     4.7030     1.3540 o          1 AIZ      -0.717500
     36 H6          -1.2970     1.2600     1.4550 ha         1 AIZ       0.144000
     37 H7           2.2730    -0.5820    -1.3710 ha         1 AIZ       0.139000
     38 H8          -0.0730     2.6990     0.1170 ha         1 AIZ       0.133000
     39 HN9         -1.9550    -1.3170    -3.2080 hn         1 AIZ       0.365000
     40 H10         -4.3350    -1.1980    -1.6850 ha         1 AIZ       0.118000
     41 H11         -3.6900     0.8860     2.0630 ha         1 AIZ       0.111000
     42 H15          4.2150     2.7180     0.6270 ha         1 AIZ       0.126000
     43 H16          5.4450     1.0270    -0.1750 hn         1 AIZ       0.143000
     44 H18         -5.6240    -0.3730     1.6270 hn         1 AIZ       0.503000
     45 H221         7.1700     0.0580    -0.8260 hc         1 AIZ       0.053200
     46 H222         7.0420    -1.1970    -2.1020 hc         1 AIZ       0.053200
     47 H25         -6.0740     0.3380    -1.9240 ha         1 AIZ       0.134000
     48 H261         6.6570    -2.9300    -0.3530 hc         1 AIZ       0.061700
     49 H262         6.7420    -1.6930     0.9040 hc         1 AIZ       0.061700
     50 H27         -9.8250    -1.9520     0.4200 ha         1 AIZ       0.121000
     51 H29         -8.1980    -0.1010    -3.1240 ha         1 AIZ       0.113000
     52 H301         9.1140    -1.2270     0.3270 h1         1 AIZ       0.025200
     53 H302         9.0110    -2.3330    -1.0440 h1         1 AIZ       0.025200
     54 H31        -10.0790    -1.2480    -1.9570 ha         1 AIZ       0.113000
     55 H331        10.8470    -4.4590     1.2420 h1         1 AIZ       0.027700
     56 H332        10.7890    -3.7620    -0.3900 h1         1 AIZ       0.027700
     57 H333        11.1590    -2.7220     1.0060 h1         1 AIZ       0.027700
     58 H341         7.6550    -3.1060     2.3980 h1         1 AIZ       0.027700
     59 H342         9.1120    -4.0020     2.8480 h1         1 AIZ       0.027700
     60 H343         9.1800    -2.2320     2.6910 h1         1 AIZ       0.027700
@<TRIPOS>BOND
     1     1     2 1   
     2     1     3 1   
     3     1     4 2   
     4     2     5 ar  
     5     2     6 ar  
     6     3     7 ar  
     7     3     8 ar  
     8     4     9 1   
     9     5     9 1   
    10     5    10 ar  
    11     6    11 ar  
    12     6    36 1   
    13     7    12 ar  
    14     7    37 1   
    15     8    13 ar  
    16     8    38 1   
    17     9    39 1   
    18    10    14 ar  
    19    10    40 1   
    20    11    14 ar  
    21    11    41 1   
    22    12    15 ar  
    23    12    16 1   
    24    13    15 ar  
    25    13    17 1   
    26    14    18 1   
    27    15    42 1   
    28    16    19 1   
    29    16    43 1   
    30    17    20 1   
    31    17    35 1   
    32    18    21 1   
    33    18    44 1   
    34    19    22 1   
    35    19    23 2   
    36    21    24 ar  
    37    21    25 ar  
    38    22    26 1   
    39    22    45 1   
    40    22    46 1   
    41    24    27 ar  
    42    24    28 1   
    43    25    29 ar  
    44    25    47 1   
    45    26    30 1   
    46    26    48 1   
    47    26    49 1   
    48    27    31 ar  
    49    27    50 1   
    50    29    31 ar  
    51    29    51 1   
    52    30    32 1   
    53    30    52 1   
    54    30    53 1   
    55    31    54 1   
    56    32    33 1   
    57    32    34 1   
    58    33    55 1   
    59    33    56 1   
    60    33    57 1   
    61    34    58 1   
    62    34    59 1   
    63    34    60 1   
@<TRIPOS>SUBSTRUCTURE
     1 AIZ         1 TEMP              0 ****  ****    0 ROOT
