@<TRIPOS>MOLECULE
AIZ
   60    63     1     0     0
SMALL
abcg2


@<TRIPOS>ATOM
      1 C1          -0.2110     0.4240    -0.6650 cc         1 AIZ       0.450500
      2 C2          -1.5620     0.6500    -0.2580 ca         1 AIZ      -0.244900
      3 C3           0.9870     1.2130    -0.3650 ca         1 AIZ      -0.129900
      4 N4          -0.1360    -0.6720    -1.3850 nd         1 AIZ      -0.528100
      5 C5          -2.2820    -0.4190    -0.8150 ca         1 AIZ      -0.013200
      6 C6          -2.2550     1.5760     0.5360 ca         1 AIZ       0.023000
      7 C7           2.2220     0.5680    -0.2680 ca         1 AIZ      -0.117000
      8 C8           0.9040     2.5900    -0.1890 ca         1 AIZ      -0.081000
      9 N9          -1.3720    -1.1700    -1.4740 na         1 AIZ      -0.072400
     10 C10         -3.6570    -0.6010    -0.6390 ca         1 AIZ      -0.216000
     11 C11         -3.6060     1.4240     0.7090 ca         1 AIZ      -0.216000
     12 C12          3.3690     1.3080     0.0080 ca         1 AIZ      -0.074000
     13 C13          2.0450     3.3350     0.0920 ca         1 AIZ      -0.124600
     14 C14         -4.3220     0.3440     0.1230 ca         1 AIZ       0.346000
     15 C15          3.2660     2.6890     0.1880 ca         1 AIZ      -0.120000
     16 N16          4.6470     0.7540     0.1360 ns         1 AIZ      -0.140000
     17 C17          1.9560     4.8470     0.2830 c          1 AIZ       0.715600
     18 N18         -5.6760     0.2830     0.3990 nu         1 AIZ      -0.989000
     19 C19          5.0700    -0.5200    -0.0790 c          1 AIZ       0.600100
     20 O20          3.0260     5.4430     0.5120 o          1 AIZ      -0.717500
     21 C21         -6.6380    -0.4880    -0.2270 ca         1 AIZ       0.340000
     22 C22          6.5610    -0.6930     0.1230 c3         1 AIZ      -0.165400
     23 O23          4.3340    -1.4330    -0.4080 o          1 AIZ      -0.594100
     24 C24         -7.7210    -0.9970     0.4990 ca         1 AIZ       0.051000
     25 C25         -6.6110    -0.7480    -1.6010 ca         1 AIZ      -0.152000
     26 C26          7.0310    -2.1340     0.0150 c3         1 AIZ      -0.064400
     27 C27         -8.7250    -1.7350    -0.1060 ca         1 AIZ      -0.073000
     28 CL28        -7.8160    -0.6970     2.2070 cl         1 AIZ      -0.216000
     29 C29         -7.6000    -1.5040    -2.2060 ca         1 AIZ      -0.078000
     30 C30          8.5330    -2.2250     0.2520 c3         1 AIZ       0.162800
     31 C31         -8.6620    -2.0020    -1.4640 ca         1 AIZ      -0.148000
     32 N32          9.0790    -3.5460     0.0060 n3         1 AIZ      -0.711600
     33 C33         10.5260    -3.5120    -0.0010 c3         1 AIZ       0.151100
     34 C34          8.6000    -4.5340     0.9480 c3         1 AIZ       0.151100
     35 O35          0.8220     5.3510     0.1930 o          1 AIZ      -0.717500
     36 H6          -1.7480     2.4040     1.0130 ha         1 AIZ       0.144000
     37 H7           2.2720    -0.5000    -0.3950 ha         1 AIZ       0.139000
     38 H8          -0.0410     3.1040    -0.2950 ha         1 AIZ       0.133000
     39 HN9         -1.5310    -2.0130    -2.0000 hn         1 AIZ       0.365000
     40 H10         -4.1590    -1.4590    -1.0650 ha         1 AIZ       0.118000
     41 H11         -4.1510     2.1410     1.3100 ha         1 AIZ       0.111000
     42 H15          4.1540     3.2710     0.4040 ha         1 AIZ       0.126000
     43 H16          5.3650     1.4150     0.3930 hn         1 AIZ       0.143000
     44 H18         -5.9730     0.7840     1.2210 hn         1 AIZ       0.503000
     45 H221         6.8330    -0.2750     1.0980 hc         1 AIZ       0.053200
     46 H222         7.0750    -0.0710    -0.6180 hc         1 AIZ       0.053200
     47 H25         -5.8130    -0.3350    -2.2030 ha         1 AIZ       0.134000
     48 H261         6.8040    -2.5320    -0.9770 hc         1 AIZ       0.061700
     49 H262         6.4890    -2.7470     0.7370 hc         1 AIZ       0.061700
     50 H27         -9.5470    -2.1110     0.4900 ha         1 AIZ       0.121000
     51 H29         -7.5450    -1.6880    -3.2710 ha         1 AIZ       0.113000
     52 H301         8.7640    -1.8730     1.2740 h1         1 AIZ       0.025200
     53 H302         9.0340    -1.5300    -0.4280 h1         1 AIZ       0.025200
     54 H31         -9.4400    -2.5870    -1.9350 ha         1 AIZ       0.113000
     55 H331        10.9220    -4.4970    -0.2510 h1         1 AIZ       0.027700
     56 H332        10.8830    -2.8080    -0.7540 h1         1 AIZ       0.027700
     57 H333        10.9610    -3.2160     0.9680 h1         1 AIZ       0.027700
     58 H341         7.5170    -4.6440     0.8860 h1         1 AIZ       0.027700
     59 H342         9.0370    -5.5070     0.7160 h1         1 AIZ       0.027700
     60 H343         8.8550    -4.2950     1.9930 h1         1 AIZ       0.027700
@<TRIPOS>BOND
     1     1     2 1   
     2     1     3 1   
     3     1     4 2   
     4     2     5 ar  
     5     2     6 ar  
     6     3     7 ar  
     7     3     8 ar  
     8     4     9 1   
     9     5     9 1   
    10     5    10 ar  
    11     6    11 ar  
    12     6    36 1   
    13     7    12 ar  
    14     7    37 1   
    15     8    13 ar  
    16     8    38 1   
    17     9    39 1   
    18    10    14 ar  
    19    10    40 1   
    20    11    14 ar  
    21    11    41 1   
    22    12    15 ar  
    23    12    16 1   
    24    13    15 ar  
    25    13    17 1   
    26    14    18 1   
    27    15    42 1   
    28    16    19 1   
    29    16    43 1   
    30    17    20 1   
    31    17    35 1   
    32    18    21 1   
    33    18    44 1   
    34    19    22 1   
    35    19    23 2   
    36    21    24 ar  
    37    21    25 ar  
    38    22    26 1   
    39    22    45 1   
    40    22    46 1   
    41    24    27 ar  
    42    24    28 1   
    43    25    29 ar  
    44    25    47 1   
    45    26    30 1   
    46    26    48 1   
    47    26    49 1   
    48    27    31 ar  
    49    27    50 1   
    50    29    31 ar  
    51    29    51 1   
    52    30    32 1   
    53    30    52 1   
    54    30    53 1   
    55    31    54 1   
    56    32    33 1   
    57    32    34 1   
    58    33    55 1   
    59    33    56 1   
    60    33    57 1   
    61    34    58 1   
    62    34    59 1   
    63    34    60 1   
@<TRIPOS>SUBSTRUCTURE
     1 AIZ         1 TEMP              0 ****  ****    0 ROOT
