@<TRIPOS>MOLECULE
AJ1
   26    27     1     0     0
SMALL
No Charge or Current Charge


@<TRIPOS>ATOM
      1 C1           5.5200    -0.2500    -0.0800 c3         1 AJ1      -0.181100
      2 C2           4.0410    -0.6220    -0.0210 c          1 AJ1       0.607100
      3 O3           3.6820    -1.7900     0.0770 o          1 AJ1      -0.586100
      4 N4           3.1810     0.4660    -0.0890 ns         1 AJ1      -0.144000
      5 C5           1.7620     0.5700    -0.0680 ca         1 AJ1      -0.035000
      6 C6           1.2010     1.8630    -0.1590 ca         1 AJ1      -0.153000
      7 C7          -0.1970     2.0490    -0.1450 ca         1 AJ1      -0.054000
      8 C8          -1.0400     0.9320    -0.0400 ca         1 AJ1       0.123400
      9 C9          -0.4900    -0.3310     0.0480 ca         1 AJ1      -0.164000
     10 C10          0.8970    -0.5460     0.0370 ca         1 AJ1      -0.084000
     11 S11         -1.7180    -1.5780     0.1710 ss         1 AJ1      -0.046200
     12 C12         -2.8850    -0.2380     0.0890 cc         1 AJ1       0.654100
     13 N13         -2.4280     1.0090    -0.0180 nd         1 AJ1      -0.635100
     14 N14         -4.2370    -0.4460     0.1330 nu         1 AJ1      -0.893400
     15 C15         -5.2900     0.5820     0.0730 c3         1 AJ1       0.224100
     16 H11C         5.7040     0.3390    -0.9860 hc         1 AJ1       0.063033
     17 H12C         5.7380     0.4720     0.7150 hc         1 AJ1       0.063033
     18 H13C         6.1790    -1.1240    -0.0250 hc         1 AJ1       0.063033
     19 H4           3.6530     1.3580    -0.1680 hn         1 AJ1       0.148000
     20 H6           1.8500     2.7330    -0.2400 ha         1 AJ1       0.109000
     21 H10          1.2730    -1.5630     0.1100 ha         1 AJ1       0.157000
     22 H7          -0.6200     3.0470    -0.2150 ha         1 AJ1       0.129000
     23 H14         -4.5140    -1.4240     0.2160 hn         1 AJ1       0.507000
     24 H151        -6.2840     0.1190     0.1300 h1         1 AJ1       0.042700
     25 H152        -5.1890     1.2870     0.9100 h1         1 AJ1       0.042700
     26 H153        -5.2250     1.1460    -0.8670 h1         1 AJ1       0.042700
@<TRIPOS>BOND
     1     1     2 1   
     2     1    16 1   
     3     1    17 1   
     4     1    18 1   
     5     2     3 2   
     6     2     4 1   
     7     4     5 1   
     8     4    19 1   
     9     5     6 ar  
    10     5    10 ar  
    11     6     7 ar  
    12     6    20 1   
    13     7     8 ar  
    14     7    22 1   
    15     8     9 ar  
    16     8    13 1   
    17     9    10 ar  
    18     9    11 1   
    19    10    21 1   
    20    11    12 1   
    21    12    13 2   
    22    12    14 1   
    23    14    15 1   
    24    14    23 1   
    25    15    24 1   
    26    15    25 1   
    27    15    26 1   
@<TRIPOS>SUBSTRUCTURE
     1 AJ1         1 TEMP              0 ****  ****    0 ROOT
