@<TRIPOS>MOLECULE
AJ1
   26    27     1     0     0
SMALL
bcc


@<TRIPOS>ATOM
      1 C1           5.4340    -0.2390    -0.1250 c3         1 AJ1      -0.181100
      2 C2           3.9620    -0.5680    -0.0980 c          1 AJ1       0.674100
      3 O3           3.5610    -1.7200    -0.1190 o          1 AJ1      -0.586100
      4 N4           3.1490     0.5150    -0.0610 ns         1 AJ1      -0.470100
      5 C5           1.7500     0.5800    -0.0430 ca         1 AJ1       0.057600
      6 C6           1.1850     1.8640    -0.0490 ca         1 AJ1      -0.171000
      7 C7          -0.1820     2.0590    -0.0250 ca         1 AJ1      -0.072000
      8 C8          -1.0340     0.9570     0.0060 ca         1 AJ1       0.123400
      9 C9          -0.4520    -0.3180     0.0110 ca         1 AJ1      -0.037100
     10 C10          0.9160    -0.5370    -0.0130 ca         1 AJ1      -0.102000
     11 S11         -1.7140    -1.5180     0.0520 ss         1 AJ1      -0.173100
     12 C12         -2.8970    -0.2030     0.0590 cc         1 AJ1       0.654100
     13 N13         -2.4060     0.9950     0.0330 nd         1 AJ1      -0.635100
     14 N14         -4.2000    -0.4870     0.0930 nu         1 AJ1      -0.838200
     15 C15         -5.2030     0.5510     0.0870 c3         1 AJ1       0.224100
     16 H11C         5.8500    -0.5330    -1.0890 hc         1 AJ1       0.063033
     17 H12C         5.6520     0.8150     0.0350 hc         1 AJ1       0.063033
     18 H13C         5.9470    -0.8190     0.6410 hc         1 AJ1       0.063033
     19 H4           3.6090     1.4120    -0.0560 hn         1 AJ1       0.314500
     20 H6           1.8370     2.7290    -0.0720 ha         1 AJ1       0.127000
     21 H10          1.3140    -1.5380    -0.0060 ha         1 AJ1       0.175000
     22 H7          -0.5900     3.0620    -0.0290 ha         1 AJ1       0.147000
     23 H14         -4.5000    -1.4470     0.0970 hn         1 AJ1       0.451800
     24 H151        -6.1800     0.0800     0.1170 h1         1 AJ1       0.042700
     25 H152        -5.1060     1.2050     0.9550 h1         1 AJ1       0.042700
     26 H153        -5.1390     1.1650    -0.8120 h1         1 AJ1       0.042700
@<TRIPOS>BOND
     1     1     2 1   
     2     1    16 1   
     3     1    17 1   
     4     1    18 1   
     5     2     3 2   
     6     2     4 1   
     7     4     5 1   
     8     4    19 1   
     9     5     6 ar  
    10     5    10 ar  
    11     6     7 ar  
    12     6    20 1   
    13     7     8 ar  
    14     7    22 1   
    15     8     9 ar  
    16     8    13 1   
    17     9    10 ar  
    18     9    11 1   
    19    10    21 1   
    20    11    12 1   
    21    12    13 2   
    22    12    14 1   
    23    14    15 1   
    24    14    23 1   
    25    15    24 1   
    26    15    25 1   
    27    15    26 1   
@<TRIPOS>SUBSTRUCTURE
     1 AJ1         1 TEMP              0 ****  ****    0 ROOT
