@<TRIPOS>MOLECULE
AJ2
   21    22     1     0     0
SMALL
No Charge or Current Charge


@<TRIPOS>ATOM
      1 O           -3.1220     1.2680     0.0890 oh         1 AJ2      -0.637300
      2 C4          -1.9200     0.6520     0.0750 ca         1 AJ2       0.599300
      3 N           -0.8580     1.4630     0.0750 nb         1 AJ2      -0.702000
      4 C5           0.3740     0.9060     0.0610 ca         1 AJ2       0.313000
      5 C6           0.5680    -0.5040     0.0470 ca         1 AJ2      -0.114000
      6 C2          -0.5670    -1.3500     0.0480 ca         1 AJ2       0.012700
      7 C1          -0.4630    -2.8710     0.0330 c3         1 AJ2      -0.058800
      8 C3          -1.8330    -0.7420     0.0620 ca         1 AJ2      -0.245000
      9 C7           1.8810    -1.0300     0.0330 ca         1 AJ2      -0.081000
     10 C8           2.9910    -0.1710     0.0330 ca         1 AJ2      -0.121000
     11 C9           2.8030     1.2180     0.0470 ca         1 AJ2      -0.092000
     12 C10          1.5030     1.7470     0.0610 ca         1 AJ2      -0.093000
     13 H2           0.0780    -3.2380     0.9140 hc         1 AJ2       0.050700
     14 H3          -1.4510    -3.3470     0.0350 hc         1 AJ2       0.050700
     15 H4           0.0650    -3.2220    -0.8620 hc         1 AJ2       0.050700
     16 H5          -2.7350    -1.3470     0.0630 ha         1 AJ2       0.120000
     17 H6           2.0580    -2.1030     0.0220 ha         1 AJ2       0.112000
     18 H7           3.9980    -0.5830     0.0230 ha         1 AJ2       0.115000
     19 H8           3.6630     1.8850     0.0470 ha         1 AJ2       0.116000
     20 H9           1.3640     2.8250     0.0720 ha         1 AJ2       0.134000
     21 H1          -3.7900     0.5550     0.0870 ho         1 AJ2       0.471000
@<TRIPOS>BOND
     1     1     2 1   
     2     1    21 1   
     3     2     3 ar  
     4     2     8 ar  
     5     3     4 ar  
     6     4     5 ar  
     7     4    12 ar  
     8     5     6 ar  
     9     5     9 ar  
    10     6     7 1   
    11     6     8 ar  
    12     7    13 1   
    13     7    14 1   
    14     7    15 1   
    15     8    16 1   
    16     9    10 ar  
    17     9    17 1   
    18    10    11 ar  
    19    10    18 1   
    20    11    12 ar  
    21    11    19 1   
    22    12    20 1   
@<TRIPOS>SUBSTRUCTURE
     1 AJ2         1 TEMP              0 ****  ****    0 ROOT
