@<TRIPOS>MOLECULE
AJ2
   21    22     1     0     0
SMALL
abcg2


@<TRIPOS>ATOM
      1 O           -3.0810     1.2670     0.0900 oh         1 AJ2      -0.637300
      2 C4          -1.8910     0.6560     0.0740 ca         1 AJ2       0.599300
      3 N           -0.8610     1.4440     0.0720 nb         1 AJ2      -0.702000
      4 C5           0.3720     0.8780     0.0590 ca         1 AJ2       0.313000
      5 C6           0.5740    -0.5230     0.0460 ca         1 AJ2      -0.114000
      6 C2          -0.5820    -1.3610     0.0460 ca         1 AJ2       0.012700
      7 C1          -0.4560    -2.8500     0.0320 c3         1 AJ2      -0.058800
      8 C3          -1.8070    -0.7600     0.0600 ca         1 AJ2      -0.245000
      9 C7           1.8900    -1.0300     0.0340 ca         1 AJ2      -0.081000
     10 C8           2.9680    -0.1820     0.0350 ca         1 AJ2      -0.121000
     11 C9           2.7660     1.2100     0.0480 ca         1 AJ2      -0.092000
     12 C10          1.4980     1.7300     0.0590 ca         1 AJ2      -0.093000
     13 H2           0.0950    -3.2070     0.9040 hc         1 AJ2       0.050700
     14 H3          -1.4340    -3.3270     0.0330 hc         1 AJ2       0.050700
     15 H4           0.0860    -3.1920    -0.8520 hc         1 AJ2       0.050700
     16 H5          -2.7110    -1.3590     0.0600 ha         1 AJ2       0.120000
     17 H6           2.0500    -2.1000     0.0250 ha         1 AJ2       0.112000
     18 H7           3.9740    -0.5810     0.0260 ha         1 AJ2       0.115000
     19 H8           3.6200     1.8750     0.0490 ha         1 AJ2       0.116000
     20 H9           1.3350     2.8000     0.0690 ha         1 AJ2       0.134000
     21 H1          -3.7980     0.6230     0.0990 ho         1 AJ2       0.471000
@<TRIPOS>BOND
     1     1     2 1   
     2     1    21 1   
     3     2     3 ar  
     4     2     8 ar  
     5     3     4 ar  
     6     4     5 ar  
     7     4    12 ar  
     8     5     6 ar  
     9     5     9 ar  
    10     6     7 1   
    11     6     8 ar  
    12     7    13 1   
    13     7    14 1   
    14     7    15 1   
    15     8    16 1   
    16     9    10 ar  
    17     9    17 1   
    18    10    11 ar  
    19    10    18 1   
    20    11    12 ar  
    21    11    19 1   
    22    12    20 1   
@<TRIPOS>SUBSTRUCTURE
     1 AJ2         1 TEMP              0 ****  ****    0 ROOT
