@<TRIPOS>MOLECULE
AJ3
   19    18     1     0     0
SMALL
No Charge or Current Charge


@<TRIPOS>ATOM
      1 S5           4.1820     0.2200    -0.0750 sh         1 AJ3      -0.324400
      2 C6B          2.4970    -0.0840     0.4380 c2         1 AJ3      -0.070400
      3 C7           1.6980    -0.9440    -0.2090 c2         1 AJ3      -0.201200
      4 C8B          0.2620    -1.2560     0.1680 c3         1 AJ3       0.017100
      5 S9          -0.8620     0.1500    -0.2690 s4         1 AJ3       0.164400
      6 C10         -2.4260    -0.6300     0.3430 c3         1 AJ3       0.004100
      7 C11         -3.5930     0.3300     0.2150 c2         1 AJ3      -0.203200
      8 C12         -4.7710     0.0430    -0.3620 c2         1 AJ3      -0.313000
      9 O13         -0.5370     1.2980     0.6630 o          1 AJ3      -0.493000
     10 HS5          4.4860     1.1310     0.8830 hs         1 AJ3       0.205800
     11 H6B          2.1610     0.4810     1.3100 h4         1 AJ3       0.194000
     12 H7           2.0670    -1.4890    -1.0800 ha         1 AJ3       0.186000
     13 H8B1        -0.0890    -2.1450    -0.3710 h1         1 AJ3       0.079700
     14 H8B2         0.1750    -1.4410     1.2460 h1         1 AJ3       0.079700
     15 H101        -2.6010    -1.5370    -0.2510 h1         1 AJ3       0.079700
     16 H102        -2.2760    -0.9170     1.3910 h1         1 AJ3       0.079700
     17 H11         -3.4110     1.3180     0.6460 ha         1 AJ3       0.190000
     18 H121        -4.9760    -0.9370    -0.7970 ha         1 AJ3       0.163500
     19 H122        -5.5720     0.7810    -0.4200 ha         1 AJ3       0.163500
@<TRIPOS>BOND
     1     1     2 1   
     2     1    10 1   
     3     2     3 2   
     4     2    11 1   
     5     3     4 1   
     6     3    12 1   
     7     4     5 1   
     8     4    13 1   
     9     4    14 1   
    10     5     6 1   
    11     5     9 2   
    12     6     7 1   
    13     6    15 1   
    14     6    16 1   
    15     7     8 2   
    16     7    17 1   
    17     8    18 1   
    18     8    19 1   
@<TRIPOS>SUBSTRUCTURE
     1 AJ3         1 TEMP              0 ****  ****    0 ROOT
