@<TRIPOS>MOLECULE
AJ3
   19    18     1     0     0
SMALL
bcc


@<TRIPOS>ATOM
      1 S5           4.0110     0.4120    -0.1800 sh         1 AJ3      -0.324400
      2 C6B          2.4570    -0.1200     0.4340 c2         1 AJ3      -0.020400
      3 C7           1.6070    -0.8490    -0.2860 c2         1 AJ3      -0.151200
      4 C8B          0.2530    -1.2040     0.2110 c3         1 AJ3       0.017100
      5 S9          -0.9490     0.0490    -0.3830 s4         1 AJ3       0.137600
      6 C10         -2.4190    -0.6500     0.4480 c3         1 AJ3       0.004100
      7 C11         -3.5670     0.2870     0.2910 c2         1 AJ3      -0.153200
      8 C12         -4.6340     0.0290    -0.4570 c2         1 AJ3      -0.213000
      9 O13         -0.6180     1.3260     0.3470 o          1 AJ3      -0.466200
     10 HS5          4.5450     0.7750     0.9900 hs         1 AJ3       0.205800
     11 H6B          2.2090     0.2010     1.4390 h4         1 AJ3       0.144000
     12 H7           1.8640    -1.1650    -1.2920 ha         1 AJ3       0.136000
     13 H8B1        -0.0830    -2.1720    -0.1650 h1         1 AJ3       0.079700
     14 H8B2         0.1910    -1.1990     1.3020 h1         1 AJ3       0.079700
     15 H101        -2.6170    -1.6210    -0.0110 h1         1 AJ3       0.079700
     16 H102        -2.1530    -0.7920     1.4980 h1         1 AJ3       0.079700
     17 H11         -3.5010     1.2250     0.8310 ha         1 AJ3       0.140000
     18 H121        -4.7360    -0.8990    -1.0070 ha         1 AJ3       0.113500
     19 H122        -5.4460     0.7390    -0.5420 ha         1 AJ3       0.113500
@<TRIPOS>BOND
     1     1     2 1   
     2     1    10 1   
     3     2     3 2   
     4     2    11 1   
     5     3     4 1   
     6     3    12 1   
     7     4     5 1   
     8     4    13 1   
     9     4    14 1   
    10     5     6 1   
    11     5     9 2   
    12     6     7 1   
    13     6    15 1   
    14     6    16 1   
    15     7     8 2   
    16     7    17 1   
    17     8    18 1   
    18     8    19 1   
@<TRIPOS>SUBSTRUCTURE
     1 AJ3         1 TEMP              0 ****  ****    0 ROOT
