@<TRIPOS>MOLECULE
AJ4
   31    33     1     0     0
SMALL
No Charge or Current Charge


@<TRIPOS>ATOM
      1 CAA         -3.8850     2.4360     0.5620 c3         1 AJ4      -0.062900
      2 CAM         -3.3430     1.0560     0.2830 cc         1 AJ4       0.024600
      3 CAJ         -4.1840    -0.0190     0.0340 cd         1 AJ4      -0.300200
      4 CAQ         -3.7440    -1.3980    -0.2470 c          1 AJ4       0.564200
      5 OAB         -4.5070    -2.3260    -0.4630 o          1 AJ4      -0.554000
      6 NAL         -2.3900    -1.5510    -0.2450 ns         1 AJ4      -0.375100
      7 CAR         -1.4430    -0.5510    -0.0090 ca         1 AJ4       0.100600
      8 CAK         -0.0730    -0.8520    -0.0380 ca         1 AJ4      -0.158000
      9 CAS         -1.8980     0.7550     0.2560 ca         1 AJ4      -0.125800
     10 CAI         -0.9360     1.7610     0.4950 ca         1 AJ4      -0.054000
     11 CAH          0.4370     1.4600     0.4650 ca         1 AJ4      -0.126000
     12 CAO          0.8980     0.1510     0.1930 cp         1 AJ4       0.022000
     13 CAP          2.3570    -0.1790     0.1700 cp         1 AJ4      -0.087000
     14 CAG          2.8320    -1.3500     0.8140 ca         1 AJ4      -0.073000
     15 CAE          4.1980    -1.6800     0.8090 ca         1 AJ4      -0.127000
     16 CAD          5.1220    -0.8490     0.1570 ca         1 AJ4      -0.077000
     17 CAF          4.6750     0.3130    -0.4930 ca         1 AJ4      -0.153000
     18 CAN          3.3100     0.6450    -0.4880 ca         1 AJ4       0.186000
     19 FAC          2.9200     1.7560    -1.1530 f          1 AJ4      -0.175000
     20 H1          -3.5250     3.1550    -0.1840 hc         1 AJ4       0.051367
     21 H2          -4.9810     2.4520     0.5350 hc         1 AJ4       0.051367
     22 H3          -3.5730     2.7850     1.5530 hc         1 AJ4       0.051367
     23 H4          -5.2600     0.0990     0.0320 ha         1 AJ4       0.207000
     24 H5          -2.0460    -2.4840    -0.4340 hn         1 AJ4       0.326500
     25 H6           0.2470    -1.8680    -0.2520 ha         1 AJ4       0.122000
     26 H7          -1.2390     2.7820     0.7100 ha         1 AJ4       0.119000
     27 H8           1.1530     2.2520     0.6690 ha         1 AJ4       0.126000
     28 H9           2.1320    -2.0030     1.3330 ha         1 AJ4       0.121000
     29 H10          4.5400    -2.5820     1.3130 ha         1 AJ4       0.121000
     30 H11          6.1800    -1.1060     0.1520 ha         1 AJ4       0.120000
     31 H12          5.3850     0.9560    -1.0070 ha         1 AJ4       0.134000
@<TRIPOS>BOND
     1     1     2 1   
     2     1    20 1   
     3     1    21 1   
     4     1    22 1   
     5     2     3 2   
     6     2     9 1   
     7     3     4 1   
     8     3    23 1   
     9     4     5 2   
    10     4     6 1   
    11     6     7 1   
    12     6    24 1   
    13     7     8 ar  
    14     7     9 ar  
    15     8    12 ar  
    16     8    25 1   
    17     9    10 ar  
    18    10    11 ar  
    19    10    26 1   
    20    11    12 ar  
    21    11    27 1   
    22    12    13 1   
    23    13    14 ar  
    24    13    18 ar  
    25    14    15 ar  
    26    14    28 1   
    27    15    16 ar  
    28    15    29 1   
    29    16    17 ar  
    30    16    30 1   
    31    17    18 ar  
    32    17    31 1   
    33    18    19 1   
@<TRIPOS>SUBSTRUCTURE
     1 AJ4         1 TEMP              0 ****  ****    0 ROOT
