@<TRIPOS>MOLECULE
AJ4
   31    33     1     0     0
SMALL
bcc


@<TRIPOS>ATOM
      1 CAA         -3.8090     2.3690     0.6040 c3         1 AJ4      -0.062900
      2 CAM         -3.2960     1.0020     0.2860 cc         1 AJ4       0.024600
      3 CAJ         -4.1450    -0.0160     0.0200 cd         1 AJ4      -0.250200
      4 CAQ         -3.6960    -1.3580    -0.3000 c          1 AJ4       0.706700
      5 OAB         -4.4470    -2.2950    -0.5490 o          1 AJ4      -0.629500
      6 NAL         -2.3370    -1.5200    -0.3070 ns         1 AJ4      -0.442100
      7 CAR         -1.4220    -0.5360    -0.0420 ca         1 AJ4       0.100600
      8 CAK         -0.0550    -0.8220    -0.0780 ca         1 AJ4      -0.176000
      9 CAS         -1.8720     0.7580     0.2610 ca         1 AJ4      -0.125800
     10 CAI         -0.9130     1.7450     0.5250 ca         1 AJ4      -0.072000
     11 CAH          0.4330     1.4650     0.4860 ca         1 AJ4      -0.144000
     12 CAO          0.8760     0.1680     0.1850 cp         1 AJ4       0.022000
     13 CAP          2.3130    -0.1720     0.1800 cp         1 AJ4      -0.087000
     14 CAG          2.7920    -1.2740     0.8910 ca         1 AJ4      -0.091000
     15 CAE          4.1370    -1.6070     0.8870 ca         1 AJ4      -0.145000
     16 CAD          5.0380    -0.8370     0.1640 ca         1 AJ4      -0.095000
     17 CAF          4.5920     0.2600    -0.5580 ca         1 AJ4      -0.171000
     18 CAN          3.2460     0.5690    -0.5360 ca         1 AJ4       0.150900
     19 FAC          2.8220     1.6190    -1.2580 f          1 AJ4      -0.139900
     20 H1          -3.4460     3.1020    -0.1180 hc         1 AJ4       0.051367
     21 H2          -4.8960     2.3930     0.5900 hc         1 AJ4       0.051367
     22 H3          -3.4740     2.6960     1.5900 hc         1 AJ4       0.051367
     23 H4          -5.2160     0.1410     0.0340 ha         1 AJ4       0.157000
     24 H5          -1.9920    -2.4450    -0.5290 hn         1 AJ4       0.326500
     25 H6           0.2710    -1.8240    -0.3300 ha         1 AJ4       0.140000
     26 H7          -1.2340     2.7480     0.7710 ha         1 AJ4       0.137000
     27 H8           1.1460     2.2450     0.7180 ha         1 AJ4       0.144000
     28 H9           2.0940    -1.8670     1.4690 ha         1 AJ4       0.139000
     29 H10          4.4820    -2.4630     1.4520 ha         1 AJ4       0.139000
     30 H11          6.0900    -1.0890     0.1560 ha         1 AJ4       0.138000
     31 H12          5.2750     0.8640    -1.1410 ha         1 AJ4       0.152000
@<TRIPOS>BOND
     1     1     2 1   
     2     1    20 1   
     3     1    21 1   
     4     1    22 1   
     5     2     3 2   
     6     2     9 1   
     7     3     4 1   
     8     3    23 1   
     9     4     5 2   
    10     4     6 1   
    11     6     7 1   
    12     6    24 1   
    13     7     8 ar  
    14     7     9 ar  
    15     8    12 ar  
    16     8    25 1   
    17     9    10 ar  
    18    10    11 ar  
    19    10    26 1   
    20    11    12 ar  
    21    11    27 1   
    22    12    13 1   
    23    13    14 ar  
    24    13    18 ar  
    25    14    15 ar  
    26    14    28 1   
    27    15    16 ar  
    28    15    29 1   
    29    16    17 ar  
    30    16    30 1   
    31    17    18 ar  
    32    17    31 1   
    33    18    19 1   
@<TRIPOS>SUBSTRUCTURE
     1 AJ4         1 TEMP              0 ****  ****    0 ROOT
