@<TRIPOS>MOLECULE
AJ5
   45    47     1     0     0
SMALL
bcc


@<TRIPOS>ATOM
      1 C4          -6.3860     0.9980     0.0710 c3         1 AJ5       0.101000
      2 C6          -4.0250     1.6610     0.1260 c          1 AJ5       0.677700
      3 C8          -2.6090     1.1740     0.1520 ca         1 AJ5      -0.136600
      4 C10         -0.3200     1.5610     0.7740 ca         1 AJ5      -0.120000
      5 C13          1.9000    -1.2350     0.8820 ca         1 AJ5      -0.143000
      6 C15          4.2190    -0.7340     0.3990 ca         1 AJ5      -0.123800
      7 C17          6.1000    -2.2970     1.0950 c3         1 AJ5      -0.062900
      8 C24          2.4570     0.7950    -0.2850 ca         1 AJ5      -0.171000
      9 C1          -7.5240    -2.4380    -0.4500 c3         1 AJ5       0.122700
     10 O2          -6.9350    -1.3100     0.1470 os         1 AJ5      -0.418600
     11 C3          -7.1470    -0.1300    -0.5880 c3         1 AJ5       0.114400
     12 N5          -4.9680     0.7080     0.0960 ns         1 AJ5      -0.563900
     13 O7          -4.2740     2.8580     0.1280 o          1 AJ5      -0.600100
     14 C9          -1.6390     1.9760     0.7420 ca         1 AJ5      -0.076000
     15 C11          0.0790     0.3510     0.2060 cp         1 AJ5      -0.019000
     16 C12          1.5020    -0.0440     0.2570 cp         1 AJ5       0.009000
     17 C14          3.2340    -1.5640     0.9510 ca         1 AJ5      -0.073000
     18 C16          5.6300    -1.0400     0.4360 cc         1 AJ5       0.023600
     19 C18          6.5080    -0.1800    -0.1280 cd         1 AJ5      -0.248200
     20 C19          6.1030     1.0550    -0.7720 c          1 AJ5       0.707700
     21 O20          6.8790     1.8520    -1.2850 o          1 AJ5      -0.626500
     22 N21          4.7530     1.2840    -0.7700 ns         1 AJ5      -0.442100
     23 C23          3.8110     0.4550    -0.2220 ca         1 AJ5       0.101600
     24 C25         -0.9040    -0.4260    -0.4040 ca         1 AJ5       0.030400
     25 CL          -0.4820    -1.9030    -1.2050 cl         1 AJ5      -0.099400
     26 C27         -2.2310    -0.0300    -0.4330 ca         1 AJ5      -0.102000
     27 H1          -6.5560     1.9110    -0.4970 h1         1 AJ5       0.062700
     28 H2          -6.7660     1.1690     1.0830 h1         1 AJ5       0.062700
     29 H3           0.4230     2.1800     1.2580 ha         1 AJ5       0.145000
     30 H4           1.1610    -1.8890     1.3240 ha         1 AJ5       0.144000
     31 H5           5.6330    -3.1760     0.6470 hc         1 AJ5       0.051700
     32 H6           7.1790    -2.4050     1.0080 hc         1 AJ5       0.051700
     33 H7           5.8440    -2.3040     2.1550 hc         1 AJ5       0.051700
     34 H8           2.1600     1.7160    -0.7730 ha         1 AJ5       0.143000
     35 H9          -7.2960    -3.3040     0.1700 h1         1 AJ5       0.031700
     36 H10         -8.6140    -2.3400    -0.5230 h1         1 AJ5       0.031700
     37 H11         -7.1330    -2.6180    -1.4580 h1         1 AJ5       0.031700
     38 H12         -8.2130     0.1320    -0.6210 h1         1 AJ5       0.034200
     39 H13         -6.8090    -0.2500    -1.6270 h1         1 AJ5       0.034200
     40 H14         -4.7060    -0.2450     0.2910 hn         1 AJ5       0.328500
     41 H15         -1.9140     2.9210     1.1900 ha         1 AJ5       0.160000
     42 H16          3.5230    -2.4840     1.4420 ha         1 AJ5       0.137000
     43 H17          7.5700    -0.3910    -0.1160 ha         1 AJ5       0.158000
     44 H18          4.4380     2.1390    -1.2090 hn         1 AJ5       0.327500
     45 H19         -2.9530    -0.6530    -0.9450 ha         1 AJ5       0.151000
@<TRIPOS>BOND
     1     1    11 1   
     2     1    12 1   
     3     1    27 1   
     4     1    28 1   
     5     2     3 1   
     6     2    12 1   
     7     2    13 2   
     8     3    14 ar  
     9     3    26 ar  
    10     4    14 ar  
    11     4    15 ar  
    12     4    29 1   
    13     5    16 ar  
    14     5    17 ar  
    15     5    30 1   
    16     6    17 ar  
    17     6    18 1   
    18     6    23 ar  
    19     7    18 1   
    20     7    31 1   
    21     7    32 1   
    22     7    33 1   
    23     8    16 ar  
    24     8    23 ar  
    25     8    34 1   
    26     9    10 1   
    27     9    35 1   
    28     9    36 1   
    29     9    37 1   
    30    10    11 1   
    31    11    38 1   
    32    11    39 1   
    33    12    40 1   
    34    14    41 1   
    35    15    16 1   
    36    15    24 ar  
    37    17    42 1   
    38    18    19 2   
    39    19    20 1   
    40    19    43 1   
    41    20    21 2   
    42    20    22 1   
    43    22    23 1   
    44    22    44 1   
    45    24    25 1   
    46    24    26 ar  
    47    26    45 1   
@<TRIPOS>SUBSTRUCTURE
     1 AJ5         1 TEMP              0 ****  ****    0 ROOT
