@<TRIPOS>MOLECULE
AJ5
   45    47     1     0     0
SMALL
No Charge or Current Charge


@<TRIPOS>ATOM
      1 C4          -6.5260     0.8930     0.3290 c3         1 AJ5       0.101000
      2 C6          -4.1130     1.6140     0.5520 c          1 AJ5       0.610700
      3 C8          -2.6690     1.1520     0.5120 ca         1 AJ5      -0.136600
      4 C10         -0.2880     1.6970     0.6880 ca         1 AJ5      -0.102000
      5 C13          2.0330    -1.0600     1.2560 ca         1 AJ5      -0.125000
      6 C15          4.3030    -0.6990     0.4150 ca         1 AJ5      -0.123800
      7 C17          6.3280    -2.1470     1.2350 c3         1 AJ5      -0.062900
      8 C24          2.4400     0.6770    -0.3800 ca         1 AJ5      -0.153000
      9 C1          -7.5270    -2.3260    -1.3140 c3         1 AJ5       0.145900
     10 O2          -6.9240    -1.3760    -0.4190 os         1 AJ5      -0.465000
     11 C3          -7.2450     0.0000    -0.7060 c3         1 AJ5       0.137600
     12 N5          -5.0770     0.6500     0.3540 ns         1 AJ5      -0.496900
     13 O7          -4.4170     2.7830     0.7500 o          1 AJ5      -0.600100
     14 C9          -1.6350     2.0920     0.7190 ca         1 AJ5      -0.058000
     15 C11          0.0790     0.3510     0.4560 cp         1 AJ5      -0.019000
     16 C12          1.5250    -0.0250     0.4370 cp         1 AJ5       0.009000
     17 C14          3.3970    -1.3970     1.2450 ca         1 AJ5      -0.055000
     18 C16          5.7390    -1.0430     0.3930 cc         1 AJ5       0.023600
     19 C18          6.5240    -0.2800    -0.4600 cd         1 AJ5      -0.298200
     20 C19          6.0350     0.8150    -1.3180 c          1 AJ5       0.565200
     21 O20          6.7490     1.4710    -2.0600 o          1 AJ5      -0.551000
     22 N21          4.6940     1.0380    -1.2110 ns         1 AJ5      -0.375100
     23 C23          3.8020     0.3400    -0.3920 ca         1 AJ5       0.101600
     24 C25         -0.9600    -0.5920     0.2370 ca         1 AJ5       0.122000
     25 Cl          -0.6170    -2.2840    -0.1310 cl         1 AJ5      -0.191000
     26 C27         -2.3090    -0.1960     0.2660 ca         1 AJ5      -0.084000
     27 H1          -6.7240     1.9450     0.0840 h1         1 AJ5       0.062700
     28 H2          -6.9350     0.6940     1.3280 h1         1 AJ5       0.062700
     29 H3           0.4860     2.4420     0.8580 ha         1 AJ5       0.127000
     30 H4           1.3590    -1.6030     1.9140 ha         1 AJ5       0.126000
     31 H5           5.8660    -3.1110     0.9930 hc         1 AJ5       0.051700
     32 H6           7.4070    -2.2470     1.0700 hc         1 AJ5       0.051700
     33 H7           6.1730    -1.9490     2.3020 hc         1 AJ5       0.051700
     34 H8           2.0790     1.4830    -1.0150 ha         1 AJ5       0.125000
     35 H9          -7.2390    -3.3480    -1.0360 h1         1 AJ5       0.031700
     36 H10         -8.6220    -2.2570    -1.2770 h1         1 AJ5       0.031700
     37 H11         -7.2020    -2.1490    -2.3480 h1         1 AJ5       0.031700
     38 H12         -8.3270     0.1720    -0.6430 h1         1 AJ5       0.034200
     39 H13         -6.9090     0.2740    -1.7150 h1         1 AJ5       0.034200
     40 H14         -4.7610    -0.2970     0.1980 hn         1 AJ5       0.328500
     41 H15         -1.8730     3.1370     0.9080 ha         1 AJ5       0.142000
     42 H16          3.7390    -2.2020     1.8900 ha         1 AJ5       0.119000
     43 H17          7.5890    -0.4530    -0.5490 ha         1 AJ5       0.208000
     44 H18          4.3180     1.7810    -1.7840 hn         1 AJ5       0.327500
     45 H19         -3.0640    -0.9560     0.0870 ha         1 AJ5       0.133000
@<TRIPOS>BOND
     1     1    11 1   
     2     1    12 1   
     3     1    27 1   
     4     1    28 1   
     5     2     3 1   
     6     2    12 1   
     7     2    13 2   
     8     3    14 ar  
     9     3    26 ar  
    10     4    14 ar  
    11     4    15 ar  
    12     4    29 1   
    13     5    16 ar  
    14     5    17 ar  
    15     5    30 1   
    16     6    17 ar  
    17     6    18 1   
    18     6    23 ar  
    19     7    18 1   
    20     7    31 1   
    21     7    32 1   
    22     7    33 1   
    23     8    16 ar  
    24     8    23 ar  
    25     8    34 1   
    26     9    10 1   
    27     9    35 1   
    28     9    36 1   
    29     9    37 1   
    30    10    11 1   
    31    11    38 1   
    32    11    39 1   
    33    12    40 1   
    34    14    41 1   
    35    15    16 1   
    36    15    24 ar  
    37    17    42 1   
    38    18    19 2   
    39    19    20 1   
    40    19    43 1   
    41    20    21 2   
    42    20    22 1   
    43    22    23 1   
    44    22    44 1   
    45    24    25 1   
    46    24    26 ar  
    47    26    45 1   
@<TRIPOS>SUBSTRUCTURE
     1 AJ5         1 TEMP              0 ****  ****    0 ROOT
