@<TRIPOS>MOLECULE
AJ6
   33    35     1     0     0
SMALL
No Charge or Current Charge


@<TRIPOS>ATOM
      1 C4           4.2120     1.4030    -0.5400 c          1 AJ6       0.565200
      2 C8           1.9230     0.6010    -0.1090 ca         1 AJ6       0.101600
      3 C10         -0.4050    -0.0650     0.2600 cp         1 AJ6       0.032000
      4 C13         -3.7040     1.7650     0.8070 ca         1 AJ6      -0.187000
      5 C17         -2.8110    -0.5890    -0.4300 ca         1 AJ6       0.183000
      6 C20          1.4440    -1.5860     0.8100 ca         1 AJ6      -0.056000
      7 C21          2.3930    -0.6350     0.3730 ca         1 AJ6      -0.128800
      8 C2           3.8410    -0.9210     0.4230 cc         1 AJ6       0.026600
      9 C3           4.6680     0.0970    -0.0290 cd         1 AJ6      -0.302200
     10 O5           4.9630     2.2810    -0.9320 o          1 AJ6      -0.556000
     11 N6           2.8570     1.5490    -0.5370 ns         1 AJ6      -0.375100
     12 C9           0.5500     0.8870    -0.1620 ca         1 AJ6      -0.160000
     13 C11         -1.8640     0.2530     0.2160 cp         1 AJ6      -0.094000
     14 C12         -2.3380     1.4390     0.8260 ca         1 AJ6      -0.046000
     15 C14         -4.6200     0.9180     0.1750 ca         1 AJ6       0.321000
     16 N15         -5.9480     1.2390     0.1580 nv         1 AJ6      -1.081000
     17 C16         -4.1740    -0.2530    -0.4450 ca         1 AJ6      -0.187000
     18 C19          0.0690    -1.3010     0.7560 ca         1 AJ6      -0.129000
     19 H1          -4.0450     2.6790     1.2860 ha         1 AJ6       0.118000
     20 H2           1.7600    -2.5520     1.1970 ha         1 AJ6       0.117000
     21 H3           4.0270    -3.0680     0.3310 hc         1 AJ6       0.051033
     22 H4           5.4930    -2.2450     0.8800 hc         1 AJ6       0.051033
     23 H5           4.1120    -2.3970     1.9740 hc         1 AJ6       0.051033
     24 H6           5.7450    -0.0150    -0.0330 ha         1 AJ6       0.206000
     25 H7           2.5020     2.4310    -0.8810 hn         1 AJ6       0.326500
     26 H8           0.2140     1.8480    -0.5410 ha         1 AJ6       0.122000
     27 H9          -1.6370     2.1050     1.3260 ha         1 AJ6       0.119000
     28 H10         -6.6310     0.5550    -0.1640 hn         1 AJ6       0.460500
     29 H11         -6.2910     2.0070     0.7330 hn         1 AJ6       0.460500
     30 H12         -4.8810    -0.9060    -0.9480 ha         1 AJ6       0.130000
     31 H13         -0.6400    -2.0440     1.1110 ha         1 AJ6       0.125000
     32 C1           4.3980    -2.2280     0.9290 c3         1 AJ6      -0.062900
     33 Cl          -2.3240    -2.0560    -1.2810 cl         1 AJ6      -0.202000
@<TRIPOS>BOND
     1     1     9 1   
     2     1    10 2   
     3     1    11 1   
     4     2     7 ar  
     5     2    11 1   
     6     2    12 ar  
     7     3    12 ar  
     8     3    13 1   
     9     3    18 ar  
    10     4    14 ar  
    11     4    15 ar  
    12     4    19 1   
    13     5    13 ar  
    14     5    17 ar  
    15     5    33 1   
    16     6     7 ar  
    17     6    18 ar  
    18     6    20 1   
    19     7     8 1   
    20     8     9 2   
    21     8    32 1   
    22     9    24 1   
    23    11    25 1   
    24    12    26 1   
    25    13    14 ar  
    26    14    27 1   
    27    15    16 1   
    28    15    17 ar  
    29    16    28 1   
    30    16    29 1   
    31    17    30 1   
    32    18    31 1   
    33    21    32 1   
    34    22    32 1   
    35    23    32 1   
@<TRIPOS>SUBSTRUCTURE
     1 AJ6         1 TEMP              0 ****  ****    0 ROOT
