@<TRIPOS>MOLECULE
AJ6
   33    35     1     0     0
SMALL
bcc


@<TRIPOS>ATOM
      1 C4           4.1710     1.3740    -0.5370 c          1 AJ6       0.707700
      2 C8           1.9060     0.5840    -0.1270 ca         1 AJ6       0.101600
      3 C10         -0.3850    -0.0950     0.2240 cp         1 AJ6       0.032000
      4 C13         -3.6310     1.7340     0.8210 ca         1 AJ6      -0.205000
      5 C17         -2.7840    -0.5540    -0.4580 ca         1 AJ6       0.091400
      6 C20          1.4250    -1.5810     0.7990 ca         1 AJ6      -0.074000
      7 C21          2.3730    -0.6400     0.3730 ca         1 AJ6      -0.128800
      8 C2           3.7990    -0.8640     0.4240 cc         1 AJ6       0.026600
      9 C3           4.6360     0.1040    -0.0140 cd         1 AJ6      -0.252200
     10 O5           4.9100     2.2650    -0.9390 o          1 AJ6      -0.631500
     11 N6           2.8100     1.5220    -0.5540 ns         1 AJ6      -0.442100
     12 C9           0.5360     0.8480    -0.1980 ca         1 AJ6      -0.178000
     13 C11         -1.8250     0.2280     0.1850 cp         1 AJ6      -0.094000
     14 C12         -2.2970     1.3830     0.8150 ca         1 AJ6      -0.064000
     15 C14         -4.5790     0.9300     0.1760 ca         1 AJ6       0.182600
     16 N15         -5.9000     1.2860     0.1300 nv         1 AJ6      -0.832200
     17 C16         -4.1270    -0.2260    -0.4720 ca         1 AJ6      -0.205000
     18 C19          0.0760    -1.3210     0.7280 ca         1 AJ6      -0.147000
     19 H1          -3.9460     2.6360     1.3320 ha         1 AJ6       0.136000
     20 H2           1.7570    -2.5300     1.2000 ha         1 AJ6       0.135000
     21 H3           3.9550    -3.0040     0.3840 hc         1 AJ6       0.051033
     22 H4           5.4150    -2.1780     0.9280 hc         1 AJ6       0.051033
     23 H5           4.0150    -2.3080     1.9950 hc         1 AJ6       0.051033
     24 H6           5.7080    -0.0410     0.0140 ha         1 AJ6       0.156000
     25 H7           2.4540     2.3980    -0.9140 hn         1 AJ6       0.326500
     26 H8           0.2000     1.7960    -0.6010 ha         1 AJ6       0.140000
     27 H9          -1.5900     2.0160     1.3370 ha         1 AJ6       0.137000
     28 H10         -6.5660     0.5540    -0.0550 hn         1 AJ6       0.405300
     29 H11         -6.2170     1.9350     0.8310 hn         1 AJ6       0.405300
     30 H12         -4.8310    -0.8600    -0.9970 ha         1 AJ6       0.148000
     31 H13         -0.6290    -2.0600     1.0820 ha         1 AJ6       0.143000
     32 C1           4.3270    -2.1550     0.9600 c3         1 AJ6      -0.062900
     33 CL          -2.3060    -1.9770    -1.3330 cl         1 AJ6      -0.110400
@<TRIPOS>BOND
     1     1     9 1   
     2     1    10 2   
     3     1    11 1   
     4     2     7 ar  
     5     2    11 1   
     6     2    12 ar  
     7     3    12 ar  
     8     3    13 1   
     9     3    18 ar  
    10     4    14 ar  
    11     4    15 ar  
    12     4    19 1   
    13     5    13 ar  
    14     5    17 ar  
    15     5    33 1   
    16     6     7 ar  
    17     6    18 ar  
    18     6    20 1   
    19     7     8 1   
    20     8     9 2   
    21     8    32 1   
    22     9    24 1   
    23    11    25 1   
    24    12    26 1   
    25    13    14 ar  
    26    14    27 1   
    27    15    16 1   
    28    15    17 ar  
    29    16    28 1   
    30    16    29 1   
    31    17    30 1   
    32    18    31 1   
    33    21    32 1   
    34    22    32 1   
    35    23    32 1   
@<TRIPOS>SUBSTRUCTURE
     1 AJ6         1 TEMP              0 ****  ****    0 ROOT
