@<TRIPOS>MOLECULE
AJ7
   54    57     1     0     0
SMALL
abcg2


@<TRIPOS>ATOM
      1 C4           7.2250    -0.9070     1.6390 c          1 AJ7       0.564200
      2 C8           5.1290    -0.3060     0.5620 ca         1 AJ7       0.101600
      3 C10          2.9940     0.2190    -0.4260 cp         1 AJ7       0.008000
      4 C13         -0.2910    -1.5930    -0.7310 ca         1 AJ7      -0.057000
      5 C15         -2.6760    -0.9120    -0.6350 c          1 AJ7       0.611700
      6 C21         -7.5160    -1.0770     0.2650 c6         1 AJ7       0.127300
      7 C22         -9.0280    -1.0770     0.1500 c6         1 AJ7       0.153100
      8 C24         -9.1360     1.0570     1.0590 c6         1 AJ7       0.153100
      9 C26         -0.7700     0.7340    -0.4060 ca         1 AJ7      -0.087000
     10 C2           7.2110     0.7080    -0.2220 cc         1 AJ7       0.022600
     11 C3           7.8800    -0.0010     0.7150 cd         1 AJ7      -0.297200
     12 O5           7.8090    -1.5580     2.4970 o          1 AJ7      -0.550000
     13 N6           5.8670    -0.9930     1.4890 ns         1 AJ7      -0.375100
     14 C9           3.7440    -0.4770     0.5030 ca         1 AJ7      -0.153000
     15 C11          1.5360    -0.0160    -0.4920 cp         1 AJ7      -0.016000
     16 C12          1.0620    -1.3140    -0.6840 ca         1 AJ7      -0.102000
     17 C14         -1.2200    -0.5650    -0.6080 ca         1 AJ7      -0.137600
     18 O16         -3.0590    -2.0120    -0.2590 o          1 AJ7      -0.596100
     19 N17         -3.5020     0.0340    -1.1030 ns         1 AJ7      -0.503900
     20 C18         -4.9410    -0.1090    -1.1160 c3         1 AJ7       0.101000
     21 C19         -5.5660     0.3530     0.1990 c3         1 AJ7       0.147800
     22 N20         -7.0110     0.2820     0.1620 n3         1 AJ7      -0.722600
     23 O23         -9.6250    -0.2640     1.1350 os         1 AJ7      -0.449000
     24 C25         -7.6260     1.1040     1.1900 c6         1 AJ7       0.127300
     25 C27          0.5890     0.9960    -0.3470 ca         1 AJ7       0.122000
     26 CL           1.0860     2.6230    -0.0210 cl         1 AJ7      -0.189000
     27 C29          3.6320     1.0930    -1.3170 ca         1 AJ7      -0.124000
     28 C30          4.9970     1.2570    -1.2620 ca         1 AJ7      -0.055000
     29 C31          5.7770     0.5680    -0.3230 ca         1 AJ7      -0.122800
     30 H1          -0.6240    -2.6120    -0.8760 ha         1 AJ7       0.143000
     31 H3          -7.1120    -1.6950    -0.5390 h1         1 AJ7       0.043200
     32 H4          -9.3130    -0.7360    -0.8560 h1         1 AJ7       0.050700
     33 H5          -9.4130    -2.0890     0.2840 h1         1 AJ7       0.050700
     34 H6          -9.4310     1.5210     0.1070 h1         1 AJ7       0.050700
     35 H7          -9.6000     1.6240     1.8670 h1         1 AJ7       0.050700
     36 H8          -1.4650     1.5500    -0.2550 ha         1 AJ7       0.128000
     37 H12          8.9540     0.0890     0.8100 ha         1 AJ7       0.208000
     38 H13          5.3810    -1.6140     2.1230 hn         1 AJ7       0.328500
     39 H14          3.2590    -1.1510     1.1990 ha         1 AJ7       0.125000
     40 H15          1.7770    -2.1170    -0.8060 ha         1 AJ7       0.128000
     41 H16         -3.1190     0.8930    -1.4600 hn         1 AJ7       0.317500
     42 H17         -5.3350     0.4910    -1.9360 h1         1 AJ7       0.063200
     43 H18         -5.1870    -1.1490    -1.3290 h1         1 AJ7       0.063200
     44 H19         -5.1410    -0.2290     1.0330 h1         1 AJ7       0.040200
     45 H20         -5.2780     1.3940     0.3640 h1         1 AJ7       0.040200
     46 H21         -7.2960     2.1390     1.0730 h1         1 AJ7       0.043200
     47 H22         -7.3340     0.7800     2.2030 h1         1 AJ7       0.043200
     48 H23          3.0560     1.6230    -2.0620 ha         1 AJ7       0.126000
     49 H24          5.4760     1.9270    -1.9640 ha         1 AJ7       0.120000
     50 C1           7.9330     1.6330    -1.1480 c3         1 AJ7      -0.062900
     51 H2          -7.2150    -1.5460     1.2180 h1         1 AJ7       0.043200
     52 H9           7.5690     2.6570    -1.0430 hc         1 AJ7       0.051700
     53 H10          9.0020     1.6310    -0.9480 hc         1 AJ7       0.051700
     54 H11          7.7810     1.3450    -2.1900 hc         1 AJ7       0.051700
@<TRIPOS>BOND
     1     1    11 1   
     2     1    12 2   
     3     1    13 1   
     4     2    13 1   
     5     2    14 ar  
     6     2    29 ar  
     7     3    14 ar  
     8     3    15 1   
     9     3    27 ar  
    10     4    16 ar  
    11     4    17 ar  
    12     4    30 1   
    13     5    17 1   
    14     5    18 2   
    15     5    19 1   
    16     6     7 1   
    17     6    22 1   
    18     6    31 1   
    19     6    51 1   
    20     7    23 1   
    21     7    32 1   
    22     7    33 1   
    23     8    23 1   
    24     8    24 1   
    25     8    34 1   
    26     8    35 1   
    27     9    17 ar  
    28     9    25 ar  
    29     9    36 1   
    30    10    11 2   
    31    10    29 1   
    32    10    50 1   
    33    11    37 1   
    34    13    38 1   
    35    14    39 1   
    36    15    16 ar  
    37    15    25 ar  
    38    16    40 1   
    39    19    20 1   
    40    19    41 1   
    41    20    21 1   
    42    20    42 1   
    43    20    43 1   
    44    21    22 1   
    45    21    44 1   
    46    21    45 1   
    47    22    24 1   
    48    24    46 1   
    49    24    47 1   
    50    25    26 1   
    51    27    28 ar  
    52    27    48 1   
    53    28    29 ar  
    54    28    49 1   
    55    50    52 1   
    56    50    53 1   
    57    50    54 1   
@<TRIPOS>SUBSTRUCTURE
     1 AJ7         1 TEMP              0 ****  ****    0 ROOT
