@<TRIPOS>MOLECULE
AJ7
   54    57     1     0     0
SMALL
No Charge or Current Charge


@<TRIPOS>ATOM
      1 C4           7.2690    -0.3270     2.0480 c          1 AJ7       0.564200
      2 C8           5.2130    -0.0560     0.7170 ca         1 AJ7       0.101600
      3 C10          3.0900     0.1640    -0.4850 cp         1 AJ7       0.008000
      4 C13         -0.3320    -1.5080    -0.2850 ca         1 AJ7      -0.057000
      5 C15         -2.7100    -0.7380    -0.6650 c          1 AJ7       0.611700
      6 C21         -7.8110    -0.8510    -0.3800 c6         1 AJ7       0.127300
      7 C22         -9.3640    -0.7210    -0.3480 c6         1 AJ7       0.153100
      8 C24         -9.2570     0.5630     1.6870 c6         1 AJ7       0.153100
      9 C26         -0.6730     0.8100    -0.9180 ca         1 AJ7      -0.087000
     10 C2           7.3960     0.6340    -0.3030 cc         1 AJ7       0.022600
     11 C3           7.9850     0.2310     0.8870 cd         1 AJ7      -0.297200
     12 O5           7.8140    -0.6740     3.0830 o          1 AJ7      -0.550000
     13 N6           5.9220    -0.4260     1.8640 ns         1 AJ7      -0.375100
     14 C9           3.8200    -0.2140     0.6640 ca         1 AJ7      -0.153000
     15 C11          1.6080    -0.0230    -0.5400 cp         1 AJ7      -0.016000
     16 C12          1.0540    -1.2890    -0.2400 ca         1 AJ7      -0.102000
     17 C14         -1.2190    -0.4640    -0.6270 ca         1 AJ7      -0.137600
     18 O16         -3.1750    -1.8380    -0.4020 o          1 AJ7      -0.596100
     19 N17         -3.5270     0.3160    -1.0150 ns         1 AJ7      -0.503900
     20 C18         -4.9950     0.2540    -1.0750 c3         1 AJ7       0.101000
     21 C19         -5.6560     0.2100     0.3270 c3         1 AJ7       0.147800
     22 N20         -7.1410     0.2920     0.3240 n3         1 AJ7      -0.722600
     23 O23         -9.8320    -0.5830     1.0150 os         1 AJ7      -0.449000
     24 C25         -7.7030     0.4570     1.7010 c6         1 AJ7       0.127300
     25 C27          0.7160     1.0300    -0.8740 ca         1 AJ7       0.122000
     26 Cl           1.2910     2.6660    -1.2000 cl         1 AJ7      -0.189000
     27 C29          3.8120     0.6840    -1.5840 ca         1 AJ7      -0.124000
     28 C30          5.2080     0.8410    -1.5310 ca         1 AJ7      -0.055000
     29 C31          5.9290     0.4740    -0.3740 ca         1 AJ7      -0.122800
     30 H1          -0.7160    -2.5000    -0.0520 ha         1 AJ7       0.143000
     31 H3          -7.4940    -0.9010    -1.4320 h1         1 AJ7       0.043200
     32 H4          -9.6790     0.1570    -0.9310 h1         1 AJ7       0.050700
     33 H5          -9.8230    -1.6120    -0.7990 h1         1 AJ7       0.050700
     34 H6          -9.5670     1.4820     1.1670 h1         1 AJ7       0.050700
     35 H7          -9.6400     0.6060     2.7160 h1         1 AJ7       0.050700
     36 H8          -1.3110     1.6510    -1.1730 ha         1 AJ7       0.128000
     37 H12          9.0550     0.3080     1.0370 ha         1 AJ7       0.208000
     38 H13          5.3920    -0.8050     2.6380 hn         1 AJ7       0.328500
     39 H14          3.2920    -0.6240     1.5210 ha         1 AJ7       0.125000
     40 H15          1.7120    -2.1140     0.0210 ha         1 AJ7       0.128000
     41 H16         -3.0760     1.1970    -1.2270 hn         1 AJ7       0.317500
     42 H17         -5.3580     1.1390    -1.6120 h1         1 AJ7       0.063200
     43 H18         -5.2850    -0.6340    -1.6520 h1         1 AJ7       0.063200
     44 H19         -5.3360    -0.7080     0.8380 h1         1 AJ7       0.040200
     45 H20         -5.2520     1.0520     0.9040 h1         1 AJ7       0.040200
     46 H21         -7.2940     1.3620     2.1750 h1         1 AJ7       0.043200
     47 H22         -7.4160    -0.3950     2.3350 h1         1 AJ7       0.043200
     48 H23          3.2830     0.9610    -2.4930 ha         1 AJ7       0.126000
     49 H24          5.7190     1.2470    -2.4010 ha         1 AJ7       0.120000
     50 C1           8.2110     1.1970    -1.4400 c3         1 AJ7      -0.062900
     51 H2          -7.5290    -1.8060     0.0880 h1         1 AJ7       0.043200
     52 H9           7.8890     2.2150    -1.6860 hc         1 AJ7       0.051700
     53 H10          9.2780     1.2390    -1.1890 hc         1 AJ7       0.051700
     54 H11          8.1070     0.5780    -2.3390 hc         1 AJ7       0.051700
@<TRIPOS>BOND
     1     1    11 1   
     2     1    12 2   
     3     1    13 1   
     4     2    13 1   
     5     2    14 ar  
     6     2    29 ar  
     7     3    14 ar  
     8     3    15 1   
     9     3    27 ar  
    10     4    16 ar  
    11     4    17 ar  
    12     4    30 1   
    13     5    17 1   
    14     5    18 2   
    15     5    19 1   
    16     6     7 1   
    17     6    22 1   
    18     6    31 1   
    19     6    51 1   
    20     7    23 1   
    21     7    32 1   
    22     7    33 1   
    23     8    23 1   
    24     8    24 1   
    25     8    34 1   
    26     8    35 1   
    27     9    17 ar  
    28     9    25 ar  
    29     9    36 1   
    30    10    11 2   
    31    10    29 1   
    32    10    50 1   
    33    11    37 1   
    34    13    38 1   
    35    14    39 1   
    36    15    16 ar  
    37    15    25 ar  
    38    16    40 1   
    39    19    20 1   
    40    19    41 1   
    41    20    21 1   
    42    20    42 1   
    43    20    43 1   
    44    21    22 1   
    45    21    44 1   
    46    21    45 1   
    47    22    24 1   
    48    24    46 1   
    49    24    47 1   
    50    25    26 1   
    51    27    28 ar  
    52    27    48 1   
    53    28    29 ar  
    54    28    49 1   
    55    50    52 1   
    56    50    53 1   
    57    50    54 1   
@<TRIPOS>SUBSTRUCTURE
     1 AJ7         1 TEMP              0 ****  ****    0 ROOT
