@<TRIPOS>MOLECULE
AJ8
   33    35     1     0     0
SMALL
No Charge or Current Charge


@<TRIPOS>ATOM
      1 C4           4.6490     1.2210    -0.7580 c          1 AJ8       0.566200
      2 C8           2.4320     0.2430    -0.3150 ca         1 AJ8       0.098600
      3 C10          0.1660    -0.6040     0.0730 cp         1 AJ8       0.061000
      4 C13         -3.4780    -1.3650    -0.7590 ca         1 AJ8      -0.088000
      5 C15         -5.6750    -0.1290    -0.3530 c          1 AJ8       0.713600
      6 C21          0.7400    -1.7840     0.5970 ca         1 AJ8      -0.135000
      7 C22          2.1340    -1.9460     0.6750 ca         1 AJ8      -0.066000
      8 C2           4.4680    -1.0850     0.2960 cc         1 AJ8       0.034600
      9 C3           5.2100    -0.0180    -0.1900 cd         1 AJ8      -0.320200
     10 O5           5.3260     2.1450    -1.1790 o          1 AJ8      -0.577000
     11 N6           3.2860     1.2490    -0.7740 ns         1 AJ8      -0.371100
     12 C9           1.0410     0.4040    -0.3930 ca         1 AJ8      -0.155000
     13 C11         -1.3180    -0.4560    -0.0180 cp         1 AJ8      -0.096000
     14 C12         -2.0820    -1.4670    -0.6470 ca         1 AJ8      -0.117000
     15 C14         -4.1630    -0.2450    -0.2370 ca         1 AJ8      -0.113600
     16 O16         -6.2220     0.8600     0.1140 o          1 AJ8      -0.710000
     17 O17         -6.2900    -1.0270    -0.9110 o          1 AJ8      -0.710000
     18 C18         -3.4070     0.7630     0.4040 ca         1 AJ8      -0.083000
     19 C19         -2.0100     0.6640     0.5150 ca         1 AJ8       0.120000
     20 Cl          -1.1680     1.9510     1.3810 cl         1 AJ8      -0.252000
     21 C23          3.0020    -0.9290     0.2200 ca         1 AJ8      -0.146800
     22 H1          -4.0270    -2.1620    -1.2560 ha         1 AJ8       0.136000
     23 H2           0.0920    -2.5800     0.9540 ha         1 AJ8       0.125000
     24 H3           2.5280    -2.8700     1.0910 ha         1 AJ8       0.107000
     25 H4           6.2230    -2.2340     0.8340 hc         1 AJ8       0.046033
     26 H5           4.8370    -2.4730     1.9060 hc         1 AJ8       0.046033
     27 H6           4.8510    -3.2080     0.2890 hc         1 AJ8       0.046033
     28 H7           6.2920    -0.0360    -0.1790 ha         1 AJ8       0.196000
     29 H8           2.8610     2.0830    -1.1550 hn         1 AJ8       0.326500
     30 H9           0.6280     1.3120    -0.8230 ha         1 AJ8       0.131000
     31 H10         -1.5810    -2.3380    -1.0640 ha         1 AJ8       0.096000
     32 H12         -3.9050     1.6330     0.8280 ha         1 AJ8       0.149000
     33 C1           5.1300    -2.3160     0.8620 c3         1 AJ8      -0.059900
@<TRIPOS>BOND
     1     1     9 1   
     2     1    10 2   
     3     1    11 1   
     4     2    11 1   
     5     2    12 ar  
     6     2    21 ar  
     7     3     6 ar  
     8     3    12 ar  
     9     3    13 1   
    10     4    14 ar  
    11     4    15 ar  
    12     4    22 1   
    13     5    15 1   
    14     5    16 1   
    15     5    17 1   
    16     6     7 ar  
    17     6    23 1   
    18     7    21 ar  
    19     7    24 1   
    20     8     9 2   
    21     8    21 1   
    22     8    33 1   
    23     9    28 1   
    24    11    29 1   
    25    12    30 1   
    26    13    14 ar  
    27    13    19 ar  
    28    14    31 1   
    29    15    18 ar  
    30    18    19 ar  
    31    18    32 1   
    32    19    20 1   
    33    25    33 1   
    34    26    33 1   
    35    27    33 1   
@<TRIPOS>SUBSTRUCTURE
     1 AJ8         1 TEMP              0 ****  ****    0 ROOT
