@<TRIPOS>MOLECULE
AJ8
   33    35     1     0     0
SMALL
abcg2


@<TRIPOS>ATOM
      1 C4           4.6190     1.1660    -0.7900 c          1 AJ8       0.566200
      2 C8           2.4180     0.2410    -0.3190 ca         1 AJ8       0.098600
      3 C10          0.1890    -0.5770     0.0920 cp         1 AJ8       0.061000
      4 C13         -3.3940    -1.3310    -0.7910 ca         1 AJ8      -0.088000
      5 C15         -5.6070    -0.1550    -0.3590 c          1 AJ8       0.713600
      6 C21          0.7360    -1.7490     0.6320 ca         1 AJ8      -0.135000
      7 C22          2.1010    -1.9140     0.6990 ca         1 AJ8      -0.066000
      8 C2           4.4130    -1.0480     0.2710 cc         1 AJ8       0.034600
      9 C3           5.1760    -0.0450    -0.2180 cd         1 AJ8      -0.320200
     10 O5           5.2910     2.0870    -1.2400 o          1 AJ8      -0.577000
     11 N6           3.2510     1.2190    -0.7970 ns         1 AJ8      -0.371100
     12 C9           1.0340     0.4090    -0.3840 ca         1 AJ8      -0.155000
     13 C11         -1.2790    -0.4360    -0.0040 cp         1 AJ8      -0.096000
     14 C12         -2.0170    -1.4130    -0.6730 ca         1 AJ8      -0.117000
     15 C14         -4.0890    -0.2600    -0.2380 ca         1 AJ8      -0.113600
     16 O16         -6.1350     0.8490     0.1530 o          1 AJ8      -0.710000
     17 O17         -6.1780    -1.0840    -0.9590 o          1 AJ8      -0.710000
     18 C18         -3.3710     0.7160     0.4410 ca         1 AJ8      -0.083000
     19 C19         -1.9930     0.6250     0.5540 ca         1 AJ8       0.120000
     20 CL          -1.1720     1.8560     1.4650 cl         1 AJ8      -0.252000
     21 C23          2.9740    -0.9260     0.2280 ca         1 AJ8      -0.146800
     22 H1          -3.9320    -2.1040    -1.3210 ha         1 AJ8       0.136000
     23 H2           0.0820    -2.5240     1.0120 ha         1 AJ8       0.125000
     24 H3           2.5000    -2.8240     1.1250 ha         1 AJ8       0.107000
     25 H4           6.1210    -2.2210     0.8180 hc         1 AJ8       0.046033
     26 H5           4.7380    -2.4080     1.8970 hc         1 AJ8       0.046033
     27 H6           4.7230    -3.1710     0.3170 hc         1 AJ8       0.046033
     28 H7           6.2560    -0.1140    -0.1980 ha         1 AJ8       0.196000
     29 H8           2.8320     2.0520    -1.1880 hn         1 AJ8       0.326500
     30 H9           0.6320     1.3130    -0.8250 ha         1 AJ8       0.131000
     31 H10         -1.4890    -2.2470    -1.1190 ha         1 AJ8       0.096000
     32 H12         -3.8940     1.5490     0.8890 ha         1 AJ8       0.149000
     33 C1           5.0350    -2.2760     0.8560 c3         1 AJ8      -0.059900
@<TRIPOS>BOND
     1     1     9 1   
     2     1    10 2   
     3     1    11 1   
     4     2    11 1   
     5     2    12 ar  
     6     2    21 ar  
     7     3     6 ar  
     8     3    12 ar  
     9     3    13 1   
    10     4    14 ar  
    11     4    15 ar  
    12     4    22 1   
    13     5    15 1   
    14     5    16 1   
    15     5    17 1   
    16     6     7 ar  
    17     6    23 1   
    18     7    21 ar  
    19     7    24 1   
    20     8     9 2   
    21     8    21 1   
    22     8    33 1   
    23     9    28 1   
    24    11    29 1   
    25    12    30 1   
    26    13    14 ar  
    27    13    19 ar  
    28    14    31 1   
    29    15    18 ar  
    30    18    19 ar  
    31    18    32 1   
    32    19    20 1   
    33    25    33 1   
    34    26    33 1   
    35    27    33 1   
@<TRIPOS>SUBSTRUCTURE
     1 AJ8         1 TEMP              0 ****  ****    0 ROOT
