@<TRIPOS>MOLECULE
AJA
   64    66     1     0     0
SMALL
No Charge or Current Charge


@<TRIPOS>ATOM
      1 O27          5.5390     5.9270    -5.7520 o          1 AJA      -0.728000
      2 C16          5.1390     5.2370    -4.8240 c          1 AJA       0.707200
      3 O26          5.7170     5.1930    -3.7470 o          1 AJA      -0.728000
      4 C10          3.8730     4.4180    -5.0170 ce         1 AJA      -0.156400
      5 C9           3.4150     3.5390    -3.8280 c6         1 AJA      -0.024200
      6 C8           2.3450     2.4640    -4.2100 c6         1 AJA      -0.000400
      7 C7           1.7190     1.6990    -3.0090 ca         1 AJA      -0.163300
      8 C6           2.5010     1.0690    -2.0100 ca         1 AJA       0.174100
      9 O15          3.8600     1.0330    -2.0880 oh         1 AJA      -0.514100
     10 C5           1.8990     0.4200    -0.9210 ca         1 AJA      -0.248000
     11 C4           0.4940     0.3510    -0.7890 ca         1 AJA      -0.011300
     12 C19         -0.2120    -0.3440     0.4090 c3         1 AJA       0.005300
     13 C25          0.7850    -0.8690     1.4860 c3         1 AJA      -0.080600
     14 C20         -1.2260     0.6390     1.0860 c3         1 AJA      -0.061400
     15 C21         -0.6250     1.9750     1.5960 c3         1 AJA      -0.076400
     16 C22         -1.6890     2.9200     2.1960 c3         1 AJA      -0.073400
     17 C23         -1.0960     4.2530     2.7010 c3         1 AJA      -0.077400
     18 C28         -2.1600     5.1990     3.3000 c3         1 AJA      -0.074400
     19 C29         -1.5690     6.5300     3.8040 c3         1 AJA      -0.088100
     20 C24         -0.9960    -1.5730    -0.1280 c3         1 AJA      -0.080600
     21 C3          -0.2790     0.9180    -1.8210 ca         1 AJA      -0.193000
     22 C2           0.3130     1.5570    -2.9180 ca         1 AJA       0.175100
     23 O1          -0.5340     2.0150    -3.9050 os         1 AJA      -0.363100
     24 C14         -0.0190     2.2980    -5.2190 c6         1 AJA       0.193000
     25 C18         -1.1690     3.0450    -5.9550 c3         1 AJA      -0.095100
     26 C17          0.2070     0.9270    -5.9310 c3         1 AJA      -0.095100
     27 C13          1.2610     3.1720    -5.0700 c6         1 AJA      -0.088700
     28 C12          1.8870     3.6410    -6.4100 c6         1 AJA      -0.022200
     29 C11          3.1560     4.4440    -6.1770 c2         1 AJA      -0.275200
     30 H91          4.3000     3.0530    -3.4060 hc         1 AJA       0.063200
     31 H92          3.0140     4.1880    -3.0370 hc         1 AJA       0.063200
     32 H8           2.8470     1.7150    -4.8390 hc         1 AJA       0.060700
     33 HO15         4.1950     0.5340    -1.3150 ho         1 AJA       0.453000
     34 H5           2.5460    -0.0370    -0.1800 ha         1 AJA       0.105000
     35 H251         1.4250    -0.0670     1.8710 hc         1 AJA       0.031867
     36 H252         1.4330    -1.6520     1.0730 hc         1 AJA       0.031867
     37 H253         0.2480    -1.3040     2.3370 hc         1 AJA       0.031867
     38 H201        -2.0360     0.8710     0.3850 hc         1 AJA       0.033200
     39 H202        -1.7060     0.1300     1.9310 hc         1 AJA       0.033200
     40 H211         0.1350     1.7730     2.3600 hc         1 AJA       0.048700
     41 H212        -0.1200     2.4910     0.7700 hc         1 AJA       0.048700
     42 H221        -2.1950     2.4120     3.0260 hc         1 AJA       0.030700
     43 H222        -2.4520     3.1310     1.4360 hc         1 AJA       0.030700
     44 H231        -0.3330     4.0430     3.4610 hc         1 AJA       0.042200
     45 H232        -0.5900     4.7600     1.8710 hc         1 AJA       0.042200
     46 H281        -2.9240     5.4130     2.5420 hc         1 AJA       0.032200
     47 H282        -2.6670     4.6960     4.1330 hc         1 AJA       0.032200
     48 H291        -2.3600     7.1660     4.2180 hc         1 AJA       0.030033
     49 H292        -0.8250     6.3510     4.5900 hc         1 AJA       0.030033
     50 H293        -1.0850     7.0750     2.9850 hc         1 AJA       0.030033
     51 H241        -1.7730    -1.2750    -0.8430 hc         1 AJA       0.031867
     52 H242        -0.3210    -2.2710    -0.6390 hc         1 AJA       0.031867
     53 H243        -1.4880    -2.1140     0.6890 hc         1 AJA       0.031867
     54 H3          -1.3620     0.8530    -1.7920 ha         1 AJA       0.116000
     55 H181        -2.1060     2.4770    -5.9070 hc         1 AJA       0.040367
     56 H182        -1.3550     4.0280    -5.5080 hc         1 AJA       0.040367
     57 H183        -0.9380     3.1990    -7.0150 hc         1 AJA       0.040367
     58 H171        -0.7120     0.3280    -5.9310 hc         1 AJA       0.040367
     59 H172         0.5040     1.0610    -6.9770 hc         1 AJA       0.040367
     60 H173         0.9830     0.3270    -5.4430 hc         1 AJA       0.040367
     61 H13          0.9510     4.0770    -4.5280 hc         1 AJA       0.065700
     62 H121         1.1750     4.2590    -6.9720 hc         1 AJA       0.022700
     63 H122         2.1270     2.7790    -7.0470 hc         1 AJA       0.022700
     64 H11          3.4790     5.0640    -7.0150 ha         1 AJA       0.191000
@<TRIPOS>BOND
     1     1     2 1   
     2     2     3 1   
     3     2     4 1   
     4     4     5 1   
     5     4    29 2   
     6     5     6 1   
     7     5    30 1   
     8     5    31 1   
     9     6     7 1   
    10     6    27 1   
    11     6    32 1   
    12     7     8 ar  
    13     7    22 ar  
    14     8     9 1   
    15     8    10 ar  
    16     9    33 1   
    17    10    11 ar  
    18    10    34 1   
    19    11    12 1   
    20    11    21 ar  
    21    12    13 1   
    22    12    14 1   
    23    12    20 1   
    24    13    35 1   
    25    13    36 1   
    26    13    37 1   
    27    14    15 1   
    28    14    38 1   
    29    14    39 1   
    30    15    16 1   
    31    15    40 1   
    32    15    41 1   
    33    16    17 1   
    34    16    42 1   
    35    16    43 1   
    36    17    18 1   
    37    17    44 1   
    38    17    45 1   
    39    18    19 1   
    40    18    46 1   
    41    18    47 1   
    42    19    48 1   
    43    19    49 1   
    44    19    50 1   
    45    20    51 1   
    46    20    52 1   
    47    20    53 1   
    48    21    22 ar  
    49    21    54 1   
    50    22    23 1   
    51    23    24 1   
    52    24    25 1   
    53    24    26 1   
    54    24    27 1   
    55    25    55 1   
    56    25    56 1   
    57    25    57 1   
    58    26    58 1   
    59    26    59 1   
    60    26    60 1   
    61    27    28 1   
    62    27    61 1   
    63    28    29 1   
    64    28    62 1   
    65    28    63 1   
    66    29    64 1   
@<TRIPOS>SUBSTRUCTURE
     1 AJA         1 TEMP              0 ****  ****    0 ROOT
