@<TRIPOS>MOLECULE
AJA
   64    66     1     0     0
SMALL
abcg2


@<TRIPOS>ATOM
      1 O27          5.5050     5.7920    -5.6640 o          1 AJA      -0.728000
      2 C16          5.0710     5.1450    -4.6890 c          1 AJA       0.707200
      3 O26          5.5850     5.0970    -3.5510 o          1 AJA      -0.728000
      4 C10          3.7960     4.3380    -4.8790 ce         1 AJA      -0.156400
      5 C9           3.3270     3.4890    -3.7290 c6         1 AJA      -0.024200
      6 C8           2.3080     2.4340    -4.1780 c6         1 AJA      -0.000400
      7 C7           1.6980     1.6510    -3.0400 ca         1 AJA      -0.163300
      8 C6           2.4620     0.9800    -2.0800 ca         1 AJA       0.174100
      9 O15          3.8000     0.9400    -2.2590 oh         1 AJA      -0.514100
     10 C5           1.8800     0.3630    -0.9750 ca         1 AJA      -0.248000
     11 C4           0.4990     0.3460    -0.8120 ca         1 AJA      -0.011300
     12 C19         -0.1710    -0.3150     0.3880 c3         1 AJA       0.005300
     13 C25          0.8410    -0.7890     1.4330 c3         1 AJA      -0.080600
     14 C20         -1.1650     0.6660     1.0410 c3         1 AJA      -0.061400
     15 C21         -0.5780     1.9880     1.5180 c3         1 AJA      -0.076400
     16 C22         -1.6370     2.9090     2.1150 c3         1 AJA      -0.073400
     17 C23         -1.0820     4.2540     2.5660 c3         1 AJA      -0.077400
     18 C28         -2.1390     5.1640     3.1810 c3         1 AJA      -0.074400
     19 C29         -1.5820     6.5120     3.6180 c3         1 AJA      -0.088100
     20 C24         -0.9520    -1.5430    -0.1000 c3         1 AJA      -0.080600
     21 C3          -0.2790     0.9230    -1.8080 ca         1 AJA      -0.193000
     22 C2           0.3110     1.5480    -2.9020 ca         1 AJA       0.175100
     23 O1          -0.5410     2.0510    -3.8210 os         1 AJA      -0.363100
     24 C14         -0.0330     2.3120    -5.1410 c6         1 AJA       0.193000
     25 C18         -1.1460     3.0810    -5.8350 c3         1 AJA      -0.095100
     26 C17          0.2160     0.9880    -5.8580 c3         1 AJA      -0.095100
     27 C13          1.2240     3.1630    -4.9780 c6         1 AJA      -0.088700
     28 C12          1.8240     3.6840    -6.2770 c6         1 AJA      -0.022200
     29 C11          3.1250     4.3840    -6.0310 c2         1 AJA      -0.275200
     30 H91          4.1910     3.0220    -3.2640 hc         1 AJA       0.063200
     31 H92          2.8730     4.1150    -2.9520 hc         1 AJA       0.063200
     32 H8           2.8280     1.7400    -4.8530 hc         1 AJA       0.060700
     33 HO15         4.2170     0.4760    -1.5250 ho         1 AJA       0.453000
     34 H5           2.5270    -0.1130    -0.2490 ha         1 AJA       0.105000
     35 H251         1.4690     0.0210     1.8070 hc         1 AJA       0.031867
     36 H252         1.4980    -1.5650     1.0370 hc         1 AJA       0.031867
     37 H253         0.3110    -1.2180     2.2850 hc         1 AJA       0.031867
     38 H201        -1.9740     0.8740     0.3340 hc         1 AJA       0.033200
     39 H202        -1.6390     0.1550     1.8860 hc         1 AJA       0.033200
     40 H211         0.2010     1.8120     2.2670 hc         1 AJA       0.048700
     41 H212        -0.0890     2.4970     0.6810 hc         1 AJA       0.048700
     42 H221        -2.1150     2.4100     2.9650 hc         1 AJA       0.030700
     43 H222        -2.4300     3.0720     1.3770 hc         1 AJA       0.030700
     44 H231        -0.2780     4.0930     3.2930 hc         1 AJA       0.042200
     45 H232        -0.6200     4.7610     1.7120 hc         1 AJA       0.042200
     46 H281        -2.9480     5.3170     2.4600 hc         1 AJA       0.032200
     47 H282        -2.5920     4.6600     4.0410 hc         1 AJA       0.032200
     48 H291        -2.3550     7.1420     4.0590 hc         1 AJA       0.030033
     49 H292        -0.7930     6.3880     4.3620 hc         1 AJA       0.030033
     50 H293        -1.1540     7.0560     2.7740 hc         1 AJA       0.030033
     51 H241        -1.7340    -1.2720    -0.8110 hc         1 AJA       0.031867
     52 H242        -0.2900    -2.2600    -0.5890 hc         1 AJA       0.031867
     53 H243        -1.4310    -2.0500     0.7410 hc         1 AJA       0.031867
     54 H3          -1.3610     0.9000    -1.7530 ha         1 AJA       0.116000
     55 H181        -2.0690     2.5000    -5.8480 hc         1 AJA       0.040367
     56 H182        -1.3440     4.0310    -5.3360 hc         1 AJA       0.040367
     57 H183        -0.8780     3.2940    -6.8690 hc         1 AJA       0.040367
     58 H171        -0.7000     0.3970    -5.8840 hc         1 AJA       0.040367
     59 H172         0.5230     1.1610    -6.8890 hc         1 AJA       0.040367
     60 H173         0.9910     0.3870    -5.3810 hc         1 AJA       0.040367
     61 H13          0.9180     4.0410    -4.3910 hc         1 AJA       0.065700
     62 H121         1.1360     4.3820    -6.7630 hc         1 AJA       0.022700
     63 H122         1.9730     2.8730    -7.0000 hc         1 AJA       0.022700
     64 H11          3.5230     4.9790    -6.8460 ha         1 AJA       0.191000
@<TRIPOS>BOND
     1     1     2 1   
     2     2     3 1   
     3     2     4 1   
     4     4     5 1   
     5     4    29 2   
     6     5     6 1   
     7     5    30 1   
     8     5    31 1   
     9     6     7 1   
    10     6    27 1   
    11     6    32 1   
    12     7     8 ar  
    13     7    22 ar  
    14     8     9 1   
    15     8    10 ar  
    16     9    33 1   
    17    10    11 ar  
    18    10    34 1   
    19    11    12 1   
    20    11    21 ar  
    21    12    13 1   
    22    12    14 1   
    23    12    20 1   
    24    13    35 1   
    25    13    36 1   
    26    13    37 1   
    27    14    15 1   
    28    14    38 1   
    29    14    39 1   
    30    15    16 1   
    31    15    40 1   
    32    15    41 1   
    33    16    17 1   
    34    16    42 1   
    35    16    43 1   
    36    17    18 1   
    37    17    44 1   
    38    17    45 1   
    39    18    19 1   
    40    18    46 1   
    41    18    47 1   
    42    19    48 1   
    43    19    49 1   
    44    19    50 1   
    45    20    51 1   
    46    20    52 1   
    47    20    53 1   
    48    21    22 ar  
    49    21    54 1   
    50    22    23 1   
    51    23    24 1   
    52    24    25 1   
    53    24    26 1   
    54    24    27 1   
    55    25    55 1   
    56    25    56 1   
    57    25    57 1   
    58    26    58 1   
    59    26    59 1   
    60    26    60 1   
    61    27    28 1   
    62    27    61 1   
    63    28    29 1   
    64    28    62 1   
    65    28    63 1   
    66    29    64 1   
@<TRIPOS>SUBSTRUCTURE
     1 AJA         1 TEMP              0 ****  ****    0 ROOT
