@<TRIPOS>MOLECULE
AJB
   37    39     1     0     0
SMALL
No Charge or Current Charge


@<TRIPOS>ATOM
      1 C4           1.6140    -3.5340     0.1420 ca         1 AJB      -0.231000
      2 C5           0.8000    -0.9780    -0.6470 ca         1 AJB       0.040000
      3 C6          -5.2950     1.4440    -0.0880 cc         1 AJB      -0.317000
      4 C7           3.7200     2.5790     1.3350 cc         1 AJB       0.374400
      5 C8          -4.2850     2.3730    -0.0250 cd         1 AJB       0.322300
      6 C10          0.2650    -3.1740     0.2360 ca         1 AJB       0.429000
      7 C13          3.3180     0.8730     0.0600 cc         1 AJB       0.464800
      8 C1          -4.4730     3.8610     0.0190 c3         1 AJB      -0.119400
      9 C3           2.5640    -2.6240    -0.3370 ca         1 AJB       0.034000
     10 C9           2.1570    -1.3410    -0.7250 ca         1 AJB      -0.214000
     11 C11         -0.1670    -1.8880    -0.1530 ca         1 AJB      -0.268600
     12 C12         -3.0540     0.5290    -0.0480 cc         1 AJB       0.538300
     13 C14         -1.6200    -1.4840    -0.0660 c          1 AJB       0.640700
     14 N15         -0.6000    -4.1020     0.7280 nv         1 AJB      -1.094000
     15 N16          2.9850     1.7120     2.0240 nd         1 AJB      -0.355000
     16 N17         -3.0040     1.8480    -0.0040 nd         1 AJB      -0.712000
     17 N18          2.7350     0.6230     1.2190 nd         1 AJB      -0.356000
     18 N19         -1.8590    -0.1350    -0.0390 ns         1 AJB      -0.460400
     19 N20          3.9620     2.0800     0.0760 na         1 AJB      -0.361000
     20 O21         -2.5310    -2.3000    -0.0600 o          1 AJB      -0.619100
     21 S22         -4.6590    -0.1740    -0.1240 ss         1 AJB       0.051600
     22 S23          3.3720    -0.1830    -1.3700 ss         1 AJB      -0.112300
     23 H4           1.9370    -4.5260     0.4480 ha         1 AJB       0.119000
     24 H5           0.5160     0.0130    -0.9930 ha         1 AJB       0.123000
     25 H6          -6.3630     1.6060    -0.1150 h4         1 AJB       0.157000
     26 H7           4.0910     3.5370     1.6790 h5         1 AJB       0.062100
     27 H1          -4.0420     4.2830     0.9340 hc         1 AJB       0.048033
     28 H1A         -3.9890     4.3420    -0.8390 hc         1 AJB       0.048033
     29 H1B         -5.5370     4.1260    -0.0040 hc         1 AJB       0.048033
     30 H2           5.5890     2.0730    -1.2720 h1         1 AJB       0.059033
     31 H2A          4.1000     2.8510    -1.8860 h1         1 AJB       0.059033
     32 H2B          5.1140     3.6890    -0.6750 h1         1 AJB       0.059033
     33 H3           3.6110    -2.9140    -0.4060 ha         1 AJB       0.126000
     34 HN15        -0.3220    -5.0800     0.7110 hn         1 AJB       0.501500
     35 HN1A        -1.5930    -3.9090     0.5800 hn         1 AJB       0.501500
     36 HN19        -1.0410     0.4490     0.0040 hn         1 AJB       0.347500
     37 C2           4.7380     2.7110    -1.0040 c3         1 AJB       0.061900
@<TRIPOS>BOND
     1     1     6 ar  
     2     1     9 ar  
     3     1    23 1   
     4     2    10 ar  
     5     2    11 ar  
     6     2    24 1   
     7     3     5 2   
     8     3    21 1   
     9     3    25 1   
    10     4    15 2   
    11     4    19 1   
    12     4    26 1   
    13     5     8 1   
    14     5    16 1   
    15     6    11 ar  
    16     6    14 1   
    17     7    17 2   
    18     7    19 1   
    19     7    22 1   
    20     8    27 1   
    21     8    28 1   
    22     8    29 1   
    23     9    10 ar  
    24     9    33 1   
    25    10    22 1   
    26    11    13 1   
    27    12    16 2   
    28    12    18 1   
    29    12    21 1   
    30    13    18 1   
    31    13    20 2   
    32    14    34 1   
    33    14    35 1   
    34    15    17 1   
    35    18    36 1   
    36    19    37 1   
    37    30    37 1   
    38    31    37 1   
    39    32    37 1   
@<TRIPOS>SUBSTRUCTURE
     1 AJB         1 TEMP              0 ****  ****    0 ROOT
