@<TRIPOS>MOLECULE
AJB
   37    39     1     0     0
SMALL
abcg2


@<TRIPOS>ATOM
      1 C4           1.5100    -3.1260     0.2250 ca         1 AJB      -0.231000
      2 C5           0.6370    -0.6480    -0.6250 ca         1 AJB       0.040000
      3 C6          -5.7010     1.0340    -0.2100 cc         1 AJB      -0.317000
      4 C7           4.9540     2.1690     1.4230 cc         1 AJB       0.374400
      5 C8          -4.9090     2.1290    -0.1030 cd         1 AJB       0.322300
      6 C10          0.1220    -2.8610     0.2380 ca         1 AJB       0.429000
      7 C13          3.7430     0.9460     0.1570 cc         1 AJB       0.464800
      8 C1          -5.3710     3.5440    -0.0340 c3         1 AJB      -0.119400
      9 C3           2.4160    -2.1960    -0.2130 ca         1 AJB       0.034000
     10 C9           1.9840    -0.9410    -0.6520 ca         1 AJB      -0.214000
     11 C11         -0.3090    -1.5740    -0.1790 ca         1 AJB      -0.268600
     12 C12         -3.3410     0.5880    -0.1300 cc         1 AJB       0.538300
     13 C14         -1.7440    -1.2320    -0.1690 c          1 AJB       0.640700
     14 N15         -0.7150    -3.8160     0.6830 nv         1 AJB      -1.094000
     15 N16          4.1270     1.5200     2.1840 nd         1 AJB      -0.355000
     16 N17         -3.5640     1.8600    -0.0590 nd         1 AJB      -0.712000
     17 N18          3.3520     0.7400     1.3820 nd         1 AJB      -0.356000
     18 N19         -2.0600     0.0920    -0.1050 ns         1 AJB      -0.460400
     19 N20          4.7580     1.8420     0.1230 na         1 AJB      -0.361000
     20 O21         -2.6390    -2.0680    -0.2070 o          1 AJB      -0.619100
     21 S22         -4.7500    -0.4050    -0.2520 ss         1 AJB       0.051600
     22 S23          3.1300     0.2250    -1.3130 ss         1 AJB      -0.112300
     23 H4           1.8560    -4.0960     0.5580 ha         1 AJB       0.119000
     24 H5           0.3200     0.3180    -0.9960 ha         1 AJB       0.123000
     25 H6          -6.7770     0.9930    -0.2610 h4         1 AJB       0.157000
     26 H7           5.7040     2.8750     1.7460 h5         1 AJB       0.062100
     27 H1          -5.0380     4.0190     0.8910 hc         1 AJB       0.048033
     28 H1A         -4.9670     4.1290    -0.8620 hc         1 AJB       0.048033
     29 H1B         -6.4570     3.6050    -0.0750 hc         1 AJB       0.048033
     30 H2           5.8960     1.5050    -1.5980 h1         1 AJB       0.059033
     31 H2A          4.7910     2.8920    -1.6880 h1         1 AJB       0.059033
     32 H2B          6.2640     2.9890    -0.7150 h1         1 AJB       0.059033
     33 H3           3.4700    -2.4430    -0.2260 ha         1 AJB       0.126000
     34 HN15        -0.3520    -4.7360     0.8610 hn         1 AJB       0.501500
     35 HN1A        -1.7030    -3.7380     0.5140 hn         1 AJB       0.501500
     36 HN19        -1.3440     0.7890     0.0390 hn         1 AJB       0.347500
     37 C2           5.4630     2.3330    -1.0400 c3         1 AJB       0.061900
@<TRIPOS>BOND
     1     1     6 ar  
     2     1     9 ar  
     3     1    23 1   
     4     2    10 ar  
     5     2    11 ar  
     6     2    24 1   
     7     3     5 2   
     8     3    21 1   
     9     3    25 1   
    10     4    15 2   
    11     4    19 1   
    12     4    26 1   
    13     5     8 1   
    14     5    16 1   
    15     6    11 ar  
    16     6    14 1   
    17     7    17 2   
    18     7    19 1   
    19     7    22 1   
    20     8    27 1   
    21     8    28 1   
    22     8    29 1   
    23     9    10 ar  
    24     9    33 1   
    25    10    22 1   
    26    11    13 1   
    27    12    16 2   
    28    12    18 1   
    29    12    21 1   
    30    13    18 1   
    31    13    20 2   
    32    14    34 1   
    33    14    35 1   
    34    15    17 1   
    35    18    36 1   
    36    19    37 1   
    37    30    37 1   
    38    31    37 1   
    39    32    37 1   
@<TRIPOS>SUBSTRUCTURE
     1 AJB         1 TEMP              0 ****  ****    0 ROOT
