@<TRIPOS>MOLECULE
AJD
   31    32     1     0     0
SMALL
No Charge or Current Charge


@<TRIPOS>ATOM
      1 OAA          0.2720     3.0270     1.5680 o          1 AJD      -0.721500
      2 OAB         -1.2140     2.9340     0.0230 o          1 AJD      -0.721500
      3 CAD          1.4170    -1.3700    -0.5550 ca         1 AJD      -0.055000
      4 CAE          0.1000    -1.0480    -0.9110 ca         1 AJD      -0.247000
      5 CAF          1.6260     0.7870     0.5510 ca         1 AJD      -0.016000
      6 CAG         -5.4260    -0.7170    -0.8380 c6         1 AJD      -0.073400
      7 CAH         -5.5040    -0.9840     0.6870 c6         1 AJD       0.161800
      8 CAI         -4.2030     0.1680    -1.1920 c6         1 AJD      -0.085400
      9 CAJ         -3.0480    -0.7610     0.8870 c6         1 AJD       0.121800
     10 NAK         -4.2510    -1.5890     1.1960 n7         1 AJD      -0.866400
     11 CAM         -0.2620     2.4580     0.6280 c          1 AJD       0.723600
     12 CAN          2.1770    -0.4500     0.1770 ca         1 AJD      -0.099900
     13 CAO         -0.4640     0.1850    -0.5380 ca         1 AJD       0.377000
     14 CAP          0.2980     1.1230     0.1950 ca         1 AJD      -0.226600
     15 CAQ         -2.8960    -0.4580    -0.6440 c6         1 AJD       0.247500
     16 HAD          1.8450    -2.3270    -0.8480 ha         1 AJD       0.096000
     17 HAE         -0.4820    -1.7630    -1.4860 ha         1 AJD       0.096000
     18 HAF          2.2380     1.4860     1.1170 ha         1 AJD       0.144000
     19 HAH         -5.6890    -0.0360     1.2150 h1         1 AJD       0.019200
     20 HAHA        -6.3470    -1.6560     0.9030 h1         1 AJD       0.019200
     21 HAI         -4.1350     0.2910    -2.2820 hc         1 AJD       0.050700
     22 HAIA        -4.3470     1.1720    -0.7680 hc         1 AJD       0.050700
     23 HAJ         -3.1170     0.1900     1.4370 h1         1 AJD       0.041200
     24 HAJA        -2.1490    -1.2830     1.2470 h1         1 AJD       0.041200
     25 HNAK        -4.3270    -1.7040     2.2150 hn         1 AJD       0.401000
     26 HAQ         -2.7340    -1.4140    -1.1660 h1         1 AJD       0.054700
     27 NAL         -1.7720     0.4600    -0.9090 nu         1 AJD      -0.983200
     28 HAG         -5.3600    -1.6730    -1.3760 hc         1 AJD       0.037200
     29 HNAL        -1.9660     1.4560    -0.7250 hn         1 AJD       0.552000
     30 BrAC         3.9750    -0.8780     0.6670 br         1 AJD      -0.176100
     31 HAGA        -6.3500    -0.2310    -1.1770 hc         1 AJD       0.037200
@<TRIPOS>BOND
     1     1    11 1   
     2     2    11 1   
     3     3     4 ar  
     4     3    12 ar  
     5     3    16 1   
     6     4    13 ar  
     7     4    17 1   
     8     5    12 ar  
     9     5    14 ar  
    10     5    18 1   
    11     6     7 1   
    12     6     8 1   
    13     6    28 1   
    14     6    31 1   
    15     7    10 1   
    16     7    19 1   
    17     7    20 1   
    18     8    15 1   
    19     8    21 1   
    20     8    22 1   
    21     9    10 1   
    22     9    15 1   
    23     9    23 1   
    24     9    24 1   
    25    10    25 1   
    26    11    14 1   
    27    12    30 1   
    28    13    14 ar  
    29    13    27 1   
    30    15    26 1   
    31    15    27 1   
    32    27    29 1   
@<TRIPOS>SUBSTRUCTURE
     1 AJD         1 TEMP              0 ****  ****    0 ROOT
