@<TRIPOS>MOLECULE
AJD
   31    32     1     0     0
SMALL
abcg2


@<TRIPOS>ATOM
      1 OAA          1.0370     3.5060     0.5250 o          1 AJD      -0.721500
      2 OAB         -1.1180     3.0410     0.2820 o          1 AJD      -0.721500
      3 CAD          1.2630    -1.4050    -0.2460 ca         1 AJD      -0.055000
      4 CAE         -0.0740    -1.0730    -0.3380 ca         1 AJD      -0.247000
      5 CAF          1.7880     0.8970     0.1750 ca         1 AJD      -0.016000
      6 CAG         -5.3390    -0.6520    -1.0010 c6         1 AJD      -0.073400
      7 CAH         -5.5720    -1.2440     0.3810 c6         1 AJD       0.161800
      8 CAI         -4.1540     0.3090    -0.9900 c6         1 AJD      -0.085400
      9 CAJ         -3.2630    -0.9470     0.9730 c6         1 AJD       0.121800
     10 NAK         -4.3580    -1.8890     0.8490 n7         1 AJD      -0.866400
     11 CAM          0.0970     2.7220     0.3150 c          1 AJD       0.723600
     12 CAN          2.1980    -0.4120     0.0080 ca         1 AJD      -0.099900
     13 CAO         -0.5230     0.2550    -0.1890 ca         1 AJD       0.377000
     14 CAP          0.4470     1.2580     0.0880 ca         1 AJD      -0.226600
     15 CAQ         -2.9190    -0.3630    -0.3990 c6         1 AJD       0.247500
     16 HAD          1.5600    -2.4380    -0.3730 ha         1 AJD       0.096000
     17 HAE         -0.7800    -1.8690    -0.5310 ha         1 AJD       0.096000
     18 HAF          2.5070     1.6780     0.3820 ha         1 AJD       0.144000
     19 HAH         -5.9080    -0.4400     1.0580 h1         1 AJD       0.019200
     20 HAHA        -6.3730    -1.9840     0.3440 h1         1 AJD       0.019200
     21 HAI         -3.9370     0.6690    -1.9980 hc         1 AJD       0.050700
     22 HAIA        -4.4070     1.1890    -0.3860 hc         1 AJD       0.050700
     23 HAJ         -3.4910    -0.1070     1.6520 h1         1 AJD       0.041200
     24 HAJA        -2.3940    -1.4640     1.3880 h1         1 AJD       0.041200
     25 HNAK        -4.5270    -2.3310     1.7420 hn         1 AJD       0.401000
     26 HAQ         -2.6460    -1.1920    -1.0620 h1         1 AJD       0.054700
     27 NAL         -1.8320     0.5790    -0.3360 nu         1 AJD      -0.983200
     28 HAG         -5.1520    -1.4600    -1.7140 hc         1 AJD       0.037200
     29 HNAL        -2.0230     1.5520    -0.0970 hn         1 AJD       0.552000
     30 BRAC         4.0370    -0.8560     0.1350 br         1 AJD      -0.176100
     31 HAGA        -6.2390    -0.1330    -1.3370 hc         1 AJD       0.037200
@<TRIPOS>BOND
     1     1    11 1   
     2     2    11 1   
     3     3     4 ar  
     4     3    12 ar  
     5     3    16 1   
     6     4    13 ar  
     7     4    17 1   
     8     5    12 ar  
     9     5    14 ar  
    10     5    18 1   
    11     6     7 1   
    12     6     8 1   
    13     6    28 1   
    14     6    31 1   
    15     7    10 1   
    16     7    19 1   
    17     7    20 1   
    18     8    15 1   
    19     8    21 1   
    20     8    22 1   
    21     9    10 1   
    22     9    15 1   
    23     9    23 1   
    24     9    24 1   
    25    10    25 1   
    26    11    14 1   
    27    12    30 1   
    28    13    14 ar  
    29    13    27 1   
    30    15    26 1   
    31    15    27 1   
    32    27    29 1   
@<TRIPOS>SUBSTRUCTURE
     1 AJD         1 TEMP              0 ****  ****    0 ROOT
