@<TRIPOS>MOLECULE
AJE
   28    28     1     0     0
SMALL
No Charge or Current Charge


@<TRIPOS>ATOM
      1 N           -2.6320     2.5180     0.4920 n8         1 AJE      -1.002200
      2 CB          -2.0540     1.3100    -0.1180 c5         1 AJE       0.162500
      3 CG          -0.5140     1.1560     0.1060 c5         1 AJE       0.098000
      4 NG          -0.3170    -0.3050    -0.0290 n          1 AJE      -0.423800
      5 CD          -1.5890    -1.0520    -0.0710 c5         1 AJE       0.121000
      6 CA          -2.5770    -0.0050     0.5080 c5         1 AJE      -0.208700
      7 C           -4.0110    -0.3410     0.0450 c          1 AJE       0.727000
      8 O           -4.2710    -0.4040    -1.1490 o          1 AJE      -0.744500
      9 C1           0.9380    -0.9270    -0.1780 c          1 AJE       0.592100
     10 O1           1.0080    -2.1370    -0.3610 o          1 AJE      -0.651100
     11 C2           2.2050    -0.0440    -0.0940 c3         1 AJE      -0.130400
     12 C3           3.5720    -0.7860    -0.1400 c3         1 AJE      -0.195400
     13 C4           4.7320     0.2180    -0.0390 c          1 AJE       0.714000
     14 O41          5.1630     0.7080    -1.0720 o          1 AJE      -0.755000
     15 O42          5.1350     0.5250     1.0720 o          1 AJE      -0.755000
     16 OXT         -4.8630    -0.5520     0.8960 o          1 AJE      -0.744500
     17 H           -2.2620     3.3470     0.0110 hn         1 AJE       0.395000
     18 HN2         -3.6360     2.5500     0.2800 hn         1 AJE       0.395000
     19 HB          -2.2720     1.3450    -1.1960 h1         1 AJE       0.020700
     20 HG1C         0.0580     1.7280    -0.6360 h1         1 AJE       0.036200
     21 HG2C        -0.2160     1.4880     1.1100 h1         1 AJE       0.036200
     22 HA          -2.5290     0.0170     1.6030 hc         1 AJE       0.049700
     23 HD1C        -1.8290    -1.3300    -1.1060 h1         1 AJE       0.048200
     24 HD2C        -1.5590    -1.9650     0.5370 h1         1 AJE       0.048200
     25 H21C         2.1370     0.7090    -0.8870 hc         1 AJE       0.053700
     26 H22C         2.1200     0.5850     0.8000 hc         1 AJE       0.053700
     27 H31C         3.5760    -1.4610     0.7250 hc         1 AJE       0.030200
     28 H32C         3.6000    -1.3040    -1.1070 hc         1 AJE       0.030200
@<TRIPOS>BOND
     1     1     2 1   
     2     1    17 1   
     3     1    18 1   
     4     2     3 1   
     5     2     6 1   
     6     2    19 1   
     7     3     4 1   
     8     3    20 1   
     9     3    21 1   
    10     4     5 1   
    11     4     9 1   
    12     5     6 1   
    13     5    23 1   
    14     5    24 1   
    15     6     7 1   
    16     6    22 1   
    17     7     8 1   
    18     7    16 1   
    19     9    10 2   
    20     9    11 1   
    21    11    12 1   
    22    11    25 1   
    23    11    26 1   
    24    12    13 1   
    25    12    27 1   
    26    12    28 1   
    27    13    14 1   
    28    13    15 1   
@<TRIPOS>SUBSTRUCTURE
     1 AJE         1 TEMP              0 ****  ****    0 ROOT
