@<TRIPOS>MOLECULE
AJE
   28    28     1     0     0
SMALL
bcc


@<TRIPOS>ATOM
      1 N           -2.5460     2.4980     0.4780 n8         1 AJE      -0.891800
      2 CB          -2.0080     1.3090    -0.1510 c5         1 AJE       0.162500
      3 CG          -0.5090     1.1580     0.0970 c5         1 AJE       0.098000
      4 NG          -0.2880    -0.2740    -0.0250 n          1 AJE      -0.490800
      5 CD          -1.5360    -1.0290     0.0330 c5         1 AJE       0.121000
      6 CA          -2.5680     0.0170     0.4390 c5         1 AJE      -0.208700
      7 C           -4.0110    -0.3310     0.0480 c          1 AJE       0.937600
      8 O           -4.7900     0.6270    -0.1490 o          1 AJE      -0.849800
      9 C1           0.9030    -0.8830    -0.1470 c          1 AJE       0.659100
     10 O1           0.9850    -2.1040    -0.2520 o          1 AJE      -0.651100
     11 C2           2.1190     0.0210    -0.1470 c3         1 AJE      -0.130400
     12 C3           3.4370    -0.7300    -0.1320 c3         1 AJE      -0.195400
     13 C4           4.6890     0.1650    -0.1390 c          1 AJE       0.924600
     14 O41          5.7830    -0.4370    -0.1610 o          1 AJE      -0.860300
     15 O42          4.5290     1.4010    -0.1190 o          1 AJE      -0.860300
     16 OXT         -4.2980    -1.5410    -0.0130 o          1 AJE      -0.849800
     17 H           -2.2150     3.3200    -0.0120 hn         1 AJE       0.339800
     18 HN2         -3.5500     2.4720     0.3430 hn         1 AJE       0.339800
     19 HB          -2.1740     1.2880    -1.2410 h1         1 AJE       0.020700
     20 HG1C         0.0890     1.7240    -0.6200 h1         1 AJE       0.036200
     21 HG2C        -0.2650     1.5210     1.1020 h1         1 AJE       0.036200
     22 HA          -2.5390     0.1280     1.5320 hc         1 AJE       0.049700
     23 HD1C        -1.7690    -1.4630    -0.9440 h1         1 AJE       0.048200
     24 HD2C        -1.4650    -1.8510     0.7450 h1         1 AJE       0.048200
     25 H21C         2.0670     0.6710    -1.0260 hc         1 AJE       0.053700
     26 H22C         2.0590     0.7000     0.7080 hc         1 AJE       0.053700
     27 H31C         3.4900    -1.3810     0.7460 hc         1 AJE       0.030200
     28 H32C         3.4970    -1.4060    -0.9900 hc         1 AJE       0.030200
@<TRIPOS>BOND
     1     1     2 1   
     2     1    17 1   
     3     1    18 1   
     4     2     3 1   
     5     2     6 1   
     6     2    19 1   
     7     3     4 1   
     8     3    20 1   
     9     3    21 1   
    10     4     5 1   
    11     4     9 1   
    12     5     6 1   
    13     5    23 1   
    14     5    24 1   
    15     6     7 1   
    16     6    22 1   
    17     7     8 1   
    18     7    16 1   
    19     9    10 2   
    20     9    11 1   
    21    11    12 1   
    22    11    25 1   
    23    11    26 1   
    24    12    13 1   
    25    12    27 1   
    26    12    28 1   
    27    13    14 1   
    28    13    15 1   
@<TRIPOS>SUBSTRUCTURE
     1 AJE         1 TEMP              0 ****  ****    0 ROOT
