@<TRIPOS>MOLECULE
AJG
   22    23     1     0     0
SMALL
No Charge or Current Charge


@<TRIPOS>ATOM
      1 NAH          0.6930    -1.7520    -0.2430 na         1 AJG      -0.330600
      2 CAN         -0.5650    -1.2060    -0.1070 ca         1 AJG       0.027800
      3 CAF         -1.7600    -1.9330    -0.0300 ca         1 AJG      -0.133000
      4 CAE         -2.9750    -1.2320     0.1100 ca         1 AJG      -0.039000
      5 CAL         -2.9800     0.1820     0.1720 ca         1 AJG      -0.039000
      6 CAD         -4.2190     0.8920     0.3150 cg         1 AJG       0.321000
      7 NAB         -5.2230     1.4780     0.4340 n1         1 AJG      -0.444000
      8 CAG         -1.7640     0.8950     0.0930 ca         1 AJG       0.000000
      9 CAO         -0.5680     0.1720    -0.0470 ca         1 AJG      -0.240000
     10 SAJ          1.0610     0.8740    -0.1620 ss         1 AJG       0.129800
     11 CAM          1.6930    -0.8010    -0.3040 cc         1 AJG       0.574700
     12 NAI          2.9460    -1.1240    -0.4020 nf         1 AJG      -0.763100
     13 CAK          3.8440    -0.0890    -0.6980 c          1 AJG       0.707500
     14 OAC          3.9160     0.3860    -1.8200 o          1 AJG      -0.589100
     15 CAA          4.7150     0.3620     0.4660 c3         1 AJG      -0.152100
     16 HAH          0.8900    -2.7400    -0.2930 hn         1 AJG       0.372000
     17 HAF         -1.7540    -3.0200    -0.0770 ha         1 AJG       0.131000
     18 HAE         -3.9100    -1.7860     0.1710 ha         1 AJG       0.132000
     19 HAG         -1.7510     1.9830     0.1390 ha         1 AJG       0.141000
     20 HAA1         5.2460    -0.5080     0.8670 hc         1 AJG       0.064367
     21 HAA2         5.4060     1.1650     0.1880 hc         1 AJG       0.064367
     22 HAA3         4.0730     0.6490     1.3060 hc         1 AJG       0.064367
@<TRIPOS>BOND
     1     1     2 1   
     2     1    11 1   
     3     1    16 1   
     4     2     3 ar  
     5     2     9 ar  
     6     3     4 ar  
     7     3    17 1   
     8     4     5 ar  
     9     4    18 1   
    10     5     6 1   
    11     5     8 ar  
    12     6     7 3   
    13     8     9 ar  
    14     8    19 1   
    15     9    10 1   
    16    10    11 1   
    17    11    12 2   
    18    12    13 1   
    19    13    14 2   
    20    13    15 1   
    21    15    20 1   
    22    15    21 1   
    23    15    22 1   
@<TRIPOS>SUBSTRUCTURE
     1 AJG         1 TEMP              0 ****  ****    0 ROOT
