@<TRIPOS>MOLECULE
AJG
   22    23     1     0     0
SMALL
abcg2


@<TRIPOS>ATOM
      1 NAH          0.6820    -1.4740     0.1020 na         1 AJG      -0.330600
      2 CAN         -0.6320    -1.0900     0.0770 ca         1 AJG       0.027800
      3 CAF         -1.7460    -1.9160     0.1530 ca         1 AJG      -0.133000
      4 CAE         -2.9950    -1.3280     0.1090 ca         1 AJG      -0.039000
      5 CAL         -3.1240     0.0620    -0.0080 ca         1 AJG      -0.039000
      6 CAD         -4.4240     0.6440    -0.0500 cg         1 AJG       0.321000
      7 NAB         -5.4760     1.1150    -0.0730 n1         1 AJG      -0.444000
      8 CAG         -2.0030     0.8890    -0.0840 ca         1 AJG       0.000000
      9 CAO         -0.7590     0.2940    -0.0410 ca         1 AJG      -0.240000
     10 SAJ          0.8060     1.0720    -0.1200 ss         1 AJG       0.129800
     11 CAM          1.6010    -0.4910     0.0090 cc         1 AJG       0.574700
     12 NAI          2.8680    -0.7430     0.0210 nf         1 AJG      -0.763100
     13 CAK          3.7250     0.3220    -0.0830 c          1 AJG       0.707500
     14 OAC          3.3500     1.4820    -0.1820 o          1 AJG      -0.589100
     15 CAA          5.1750    -0.0600    -0.0540 c3         1 AJG      -0.152100
     16 HAH          0.9790    -2.4370     0.1840 hn         1 AJG       0.372000
     17 HAF         -1.6420    -2.9880     0.2410 ha         1 AJG       0.131000
     18 HAE         -3.8790    -1.9470     0.1650 ha         1 AJG       0.132000
     19 HAG         -2.1100     1.9610    -0.1740 ha         1 AJG       0.141000
     20 HAA1         5.3810    -0.8230    -0.8050 hc         1 AJG       0.064367
     21 HAA2         5.8170     0.8000    -0.2260 hc         1 AJG       0.064367
     22 HAA3         5.4200    -0.4970     0.9160 hc         1 AJG       0.064367
@<TRIPOS>BOND
     1     1     2 1   
     2     1    11 1   
     3     1    16 1   
     4     2     3 ar  
     5     2     9 ar  
     6     3     4 ar  
     7     3    17 1   
     8     4     5 ar  
     9     4    18 1   
    10     5     6 1   
    11     5     8 ar  
    12     6     7 3   
    13     8     9 ar  
    14     8    19 1   
    15     9    10 1   
    16    10    11 1   
    17    11    12 2   
    18    12    13 1   
    19    13    14 2   
    20    13    15 1   
    21    15    20 1   
    22    15    21 1   
    23    15    22 1   
@<TRIPOS>SUBSTRUCTURE
     1 AJG         1 TEMP              0 ****  ****    0 ROOT
