@<TRIPOS>MOLECULE
AJH
   56    58     1     0     0
SMALL
No Charge or Current Charge


@<TRIPOS>ATOM
      1 CAP          5.0930     0.0170    -0.4070 ca         1 AJH      -0.113000
      2 CAX          6.0390     0.9750    -0.8100 ca         1 AJH      -0.094000
      3 CAO          6.9850     1.4890     0.1060 ca         1 AJH      -0.114600
      4 CAJ          8.0090     2.5270    -0.3290 c          1 AJH       0.710600
      5 OAW          8.8130     2.9400     0.4960 o          1 AJH      -0.714500
      6 OBD          7.9950     2.9150    -1.4890 o          1 AJH      -0.714500
      7 CAY          6.9610     1.0050     1.4340 ca         1 AJH      -0.094000
      8 CAQ          6.0150     0.0460     1.8350 ca         1 AJH      -0.113000
      9 CAB          5.0540    -0.4460     0.9270 ca         1 AJH      -0.182600
     10 CAA          4.0560    -1.4940     1.3810 c          1 AJH       0.623700
     11 OAN          4.3940    -2.3480     2.1940 o          1 AJH      -0.610100
     12 NAD          2.7740    -1.5250     0.7740 n          1 AJH      -0.416800
     13 CAR          2.0680    -0.2530     0.4440 c3         1 AJH       0.090000
     14 CAS          1.4260    -0.2280    -0.9660 c3         1 AJH       0.076000
     15 CBE          1.8770    -2.6920     0.9780 c3         1 AJH       0.102000
     16 CBC          1.6300    -3.5100    -0.3100 c3         1 AJH      -0.114400
     17 CBF          1.3040    -2.6670    -1.5650 c3         1 AJH       0.105000
     18 NAE          0.5730    -1.4130    -1.2610 n          1 AJH      -0.400800
     19 CAC         -0.8440    -1.3790    -1.2750 c          1 AJH       0.597100
     20 OAU         -1.4820    -2.3790    -1.5800 o          1 AJH      -0.621100
     21 CAF         -1.5660    -0.0750    -0.8800 c3         1 AJH      -0.201400
     22 CAV         -3.0980    -0.1600    -0.7200 c3         1 AJH       0.180500
     23 NBG         -3.7290    -0.3240    -2.0410 n8         1 AJH      -0.999200
     24 CAT         -3.6740     1.0760     0.0200 c3         1 AJH      -0.028100
     25 CAG         -5.1850     0.9980     0.2530 ca         1 AJH      -0.081300
     26 CAM         -5.6880     0.1250     1.2410 ca         1 AJH      -0.105000
     27 CAL         -7.0710     0.0360     1.4700 ca         1 AJH       0.114000
     28 FBB         -7.5370    -0.8070     2.4210 f          1 AJH      -0.163000
     29 CAK         -7.9640     0.8200     0.7160 ca         1 AJH       0.154000
     30 FBA         -9.2970     0.7390     0.9330 f          1 AJH      -0.161000
     31 CAH         -7.4760     1.6930    -0.2670 ca         1 AJH      -0.178000
     32 CAI         -6.0930     1.7820    -0.4980 ca         1 AJH       0.206000
     33 FAZ         -5.6470     2.6340    -1.4480 f          1 AJH      -0.169000
     34 HAP          4.4040    -0.3820    -1.1460 ha         1 AJH       0.092000
     35 HAX          6.0390     1.3110    -1.8440 ha         1 AJH       0.132000
     36 HAY          7.6800     1.3710     2.1640 ha         1 AJH       0.132000
     37 HAQ          6.0220    -0.3070     2.8640 ha         1 AJH       0.092000
     38 HAR          1.2710    -0.1040     1.1840 h1         1 AJH       0.060200
     39 HARA         2.7410     0.6060     0.5440 h1         1 AJH       0.060200
     40 HAS          0.8690     0.7070    -1.0870 h1         1 AJH       0.060200
     41 HASA         2.2290    -0.1940    -1.7120 h1         1 AJH       0.060200
     42 HBE          2.2680    -3.3650     1.7510 h1         1 AJH       0.049700
     43 HBEA         0.9090    -2.3300     1.3480 h1         1 AJH       0.049700
     44 HBC          2.5070    -4.1310    -0.5220 hc         1 AJH       0.058200
     45 HBCA         0.7970    -4.1980    -0.1200 hc         1 AJH       0.058200
     46 HBF          2.2520    -2.4020    -2.0510 h1         1 AJH       0.056200
     47 HBFA         0.7440    -3.2770    -2.2870 h1         1 AJH       0.056200
     48 HAF         -1.0970     0.2830     0.0430 hc         1 AJH       0.063200
     49 HAFA        -1.2740     0.7110    -1.5860 hc         1 AJH       0.063200
     50 HAV         -3.3340    -1.0470    -0.1110 h1         1 AJH       0.076700
     51 HNBG        -3.4320     0.4440    -2.6520 hn         1 AJH       0.407000
     52 HNBA        -3.3200    -1.1570    -2.4810 hn         1 AJH       0.407000
     53 HAT         -3.1710     1.1660     0.9910 hc         1 AJH       0.054200
     54 HATA        -3.4050     1.9850    -0.5320 hc         1 AJH       0.054200
     55 HAM         -5.0090    -0.4860     1.8320 ha         1 AJH       0.136000
     56 HAH         -8.1640     2.3000    -0.8480 ha         1 AJH       0.148000
@<TRIPOS>BOND
     1     1     2 ar  
     2     1     9 ar  
     3     1    34 1   
     4     2     3 ar  
     5     2    35 1   
     6     3     4 1   
     7     3     7 ar  
     8     4     5 1   
     9     4     6 1   
    10     7     8 ar  
    11     7    36 1   
    12     8     9 ar  
    13     8    37 1   
    14     9    10 1   
    15    10    11 2   
    16    10    12 1   
    17    12    13 1   
    18    12    15 1   
    19    13    14 1   
    20    13    38 1   
    21    13    39 1   
    22    14    18 1   
    23    14    40 1   
    24    14    41 1   
    25    15    16 1   
    26    15    42 1   
    27    15    43 1   
    28    16    17 1   
    29    16    44 1   
    30    16    45 1   
    31    17    18 1   
    32    17    46 1   
    33    17    47 1   
    34    18    19 1   
    35    19    20 2   
    36    19    21 1   
    37    21    22 1   
    38    21    48 1   
    39    21    49 1   
    40    22    23 1   
    41    22    24 1   
    42    22    50 1   
    43    23    51 1   
    44    23    52 1   
    45    24    25 1   
    46    24    53 1   
    47    24    54 1   
    48    25    26 ar  
    49    25    32 ar  
    50    26    27 ar  
    51    26    55 1   
    52    27    28 1   
    53    27    29 ar  
    54    29    30 1   
    55    29    31 ar  
    56    31    32 ar  
    57    31    56 1   
    58    32    33 1   
@<TRIPOS>SUBSTRUCTURE
     1 AJH         1 TEMP              0 ****  ****    0 ROOT
