@<TRIPOS>MOLECULE
AJH
   56    58     1     0     0
SMALL
bcc


@<TRIPOS>ATOM
      1 CAP          5.0290    -0.0210    -0.5850 ca         1 AJH      -0.131000
      2 CAX          5.9680     0.9720    -0.8210 ca         1 AJH      -0.112000
      3 CAO          6.7810     1.4470     0.2040 ca         1 AJH      -0.114600
      4 CAJ          7.8090     2.5410    -0.0590 c          1 AJH       0.921200
      5 OAW          8.5190     2.8810     0.9060 o          1 AJH      -0.819800
      6 OBD          7.8490     2.9980    -1.2170 o          1 AJH      -0.819800
      7 CAY          6.6380     0.8900     1.4730 ca         1 AJH      -0.112000
      8 CAQ          5.7120    -0.1130     1.7140 ca         1 AJH      -0.131000
      9 CAB          4.8880    -0.5650     0.6880 ca         1 AJH      -0.182600
     10 CAA          3.9580    -1.7080     0.9460 c          1 AJH       0.690700
     11 OAN          4.4190    -2.7870     1.2960 o          1 AJH      -0.610100
     12 NAD          2.6330    -1.5070     0.7830 n          1 AJH      -0.483800
     13 CAR          2.0090    -0.2250     0.5010 c3         1 AJH       0.090000
     14 CAS          1.4390    -0.1270    -0.9130 c3         1 AJH       0.076000
     15 CBE          1.7240    -2.6350     0.9440 c3         1 AJH       0.102000
     16 CBC          1.5060    -3.4140    -0.3490 c3         1 AJH      -0.114400
     17 CBF          1.3230    -2.5030    -1.5640 c3         1 AJH       0.105000
     18 NAE          0.6120    -1.2650    -1.2740 n          1 AJH      -0.467800
     19 CAC         -0.7350    -1.2970    -1.1500 c          1 AJH       0.664100
     20 OAU         -1.3580    -2.3380    -1.3260 o          1 AJH      -0.621100
     21 CAF         -1.4400    -0.0020    -0.7940 c3         1 AJH      -0.201400
     22 CAV         -2.9600    -0.1440    -0.6680 c3         1 AJH       0.180500
     23 NBG         -3.6520    -0.4840    -1.8960 n8         1 AJH      -0.888800
     24 CAT         -3.5360     1.1620    -0.1050 c3         1 AJH      -0.028100
     25 CAG         -4.9990     1.0420     0.2010 ca         1 AJH      -0.081300
     26 CAM         -5.4190     0.5170     1.4210 ca         1 AJH      -0.123000
     27 CAL         -6.7580     0.3570     1.7060 ca         1 AJH       0.078900
     28 FBB         -7.1460    -0.1450     2.8840 f          1 AJH      -0.127900
     29 CAK         -7.7160     0.7210     0.7760 ca         1 AJH       0.118900
     30 FBA         -9.0100     0.5620     1.0640 f          1 AJH      -0.125900
     31 CAH         -7.3390     1.2490    -0.4410 ca         1 AJH      -0.196000
     32 CAI         -5.9890     1.3960    -0.7020 ca         1 AJH       0.170900
     33 FAZ         -5.6410     1.9230    -1.8840 f          1 AJH      -0.133900
     34 HAP          4.4200    -0.3840    -1.4030 ha         1 AJH       0.110000
     35 HAX          6.0710     1.3820    -1.8160 ha         1 AJH       0.150000
     36 HAY          7.2650     1.2420     2.2810 ha         1 AJH       0.150000
     37 HAQ          5.6240    -0.5380     2.7060 ha         1 AJH       0.110000
     38 HAR          1.2090    -0.0760     1.2320 h1         1 AJH       0.060200
     39 HARA         2.7210     0.5840     0.6530 h1         1 AJH       0.060200
     40 HAS          0.8780     0.8010    -0.9960 h1         1 AJH       0.060200
     41 HASA         2.2490    -0.0580    -1.6410 h1         1 AJH       0.060200
     42 HBE          2.0960    -3.2980     1.7230 h1         1 AJH       0.049700
     43 HBEA         0.7740    -2.2350     1.3030 h1         1 AJH       0.049700
     44 HBC          2.3550    -4.0740    -0.5380 hc         1 AJH       0.058200
     45 HBCA         0.6340    -4.0560    -0.2150 hc         1 AJH       0.058200
     46 HBF          2.2970    -2.2180    -1.9640 h1         1 AJH       0.056200
     47 HBFA         0.8110    -3.0420    -2.3610 h1         1 AJH       0.056200
     48 HAF         -1.0290     0.3790     0.1470 hc         1 AJH       0.063200
     49 HAFA        -1.2130     0.7600    -1.5490 hc         1 AJH       0.063200
     50 HAV         -3.1700    -0.9360     0.0580 h1         1 AJH       0.076700
     51 HNBG        -3.4500     0.2100    -2.6070 hn         1 AJH       0.351800
     52 HNBA        -3.2960    -1.3640    -2.2460 hn         1 AJH       0.351800
     53 HAT         -3.0030     1.4210     0.8130 hc         1 AJH       0.054200
     54 HATA        -3.3500     1.9750    -0.8110 hc         1 AJH       0.054200
     55 HAM         -4.6860     0.2300     2.1650 ha         1 AJH       0.154000
     56 HAH         -8.0840     1.5380    -1.1700 ha         1 AJH       0.166000
@<TRIPOS>BOND
     1     1     2 ar  
     2     1     9 ar  
     3     1    34 1   
     4     2     3 ar  
     5     2    35 1   
     6     3     4 1   
     7     3     7 ar  
     8     4     5 1   
     9     4     6 1   
    10     7     8 ar  
    11     7    36 1   
    12     8     9 ar  
    13     8    37 1   
    14     9    10 1   
    15    10    11 2   
    16    10    12 1   
    17    12    13 1   
    18    12    15 1   
    19    13    14 1   
    20    13    38 1   
    21    13    39 1   
    22    14    18 1   
    23    14    40 1   
    24    14    41 1   
    25    15    16 1   
    26    15    42 1   
    27    15    43 1   
    28    16    17 1   
    29    16    44 1   
    30    16    45 1   
    31    17    18 1   
    32    17    46 1   
    33    17    47 1   
    34    18    19 1   
    35    19    20 2   
    36    19    21 1   
    37    21    22 1   
    38    21    48 1   
    39    21    49 1   
    40    22    23 1   
    41    22    24 1   
    42    22    50 1   
    43    23    51 1   
    44    23    52 1   
    45    24    25 1   
    46    24    53 1   
    47    24    54 1   
    48    25    26 ar  
    49    25    32 ar  
    50    26    27 ar  
    51    26    55 1   
    52    27    28 1   
    53    27    29 ar  
    54    29    30 1   
    55    29    31 ar  
    56    31    32 ar  
    57    31    56 1   
    58    32    33 1   
@<TRIPOS>SUBSTRUCTURE
     1 AJH         1 TEMP              0 ****  ****    0 ROOT
