@<TRIPOS>MOLECULE
AJI
   45    48     1     0     0
SMALL
No Charge or Current Charge


@<TRIPOS>ATOM
      1 C1          35.2450    17.1420    58.0100 c3         1 AJI      -0.118400
      2 C2          40.1600    12.7900    62.9290 c3         1 AJI       0.059900
      3 C3          41.1900    15.5030    67.5280 ca         1 AJI      -0.164000
      4 C4          42.8010    17.1320    68.3510 ca         1 AJI      -0.164000
      5 C5          41.0750    16.2200    66.3250 ca         1 AJI      -0.033500
      6 C6          42.6910    17.8520    67.1480 ca         1 AJI      -0.033500
      7 C7          43.0030    16.1350    63.5540 ca         1 AJI      -0.088000
      8 C8          43.1600    15.0660    62.6640 ca         1 AJI      -0.120000
      9 C9          35.6870    18.7620    59.9370 cc         1 AJI      -0.304000
     10 C10         41.9170    11.0260    63.4770 cc         1 AJI       0.389400
     11 C11         36.0300    17.6730    59.1740 cd         1 AJI       0.321300
     12 C12         42.0520    15.9610    68.5360 ca         1 AJI       0.197000
     13 C13         41.8300    17.3940    66.1320 ca         1 AJI      -0.203000
     14 C14         41.8780    16.9720    63.4230 ca         1 AJI      -0.108000
     15 C15         42.1890    14.8550    61.6720 ca         1 AJI       0.424300
     16 C16         40.9430    16.7200    62.3760 ca         1 AJI       0.305500
     17 C17         37.7400    17.6580    60.5850 cc         1 AJI       0.551300
     18 C18         42.4550    12.3520    61.8500 cc         1 AJI       0.411800
     19 C19         39.6840    17.5800    62.1330 c          1 AJI       0.510600
     20 N20         43.0760    10.6170    62.9710 nd         1 AJI      -0.363000
     21 N21         37.2050    17.0410    59.5470 nd         1 AJI      -0.707000
     22 N22         41.1200    15.6640    61.5230 nb         1 AJI      -0.659000
     23 N23         43.3940    11.4320    61.9070 nd         1 AJI      -0.294000
     24 N24         38.9110    17.1510    61.0760 ns         1 AJI      -0.447400
     25 N25         41.4560    12.1080    62.7600 na         1 AJI      -0.358000
     26 O26         39.3690    18.5580    62.7980 o          1 AJI      -0.567100
     27 S28         36.8590    19.0480    61.1890 ss         1 AJI       0.027600
     28 S30         42.3170    13.4970    60.5220 ss         1 AJI      -0.228600
     29 H1          34.3430    17.7400    57.8360 hc         1 AJI       0.049700
     30 H1A         35.8440    17.1620    57.0930 hc         1 AJI       0.049700
     31 H1B         34.9320    16.1070    58.1890 hc         1 AJI       0.049700
     32 H2          39.4490    12.1230    63.4330 h1         1 AJI       0.064033
     33 H2A         40.2920    13.6940    63.5370 h1         1 AJI       0.064033
     34 H2B         39.7480    13.0670    61.9500 h1         1 AJI       0.064033
     35 H3          40.6110    14.5960    67.6820 ha         1 AJI       0.139500
     36 H4          43.4660    17.4800    69.1370 ha         1 AJI       0.139500
     37 H5          40.4010    15.8630    65.5480 ha         1 AJI       0.133000
     38 H6          43.2740    18.7610    67.0050 ha         1 AJI       0.133000
     39 H7          43.7400    16.3090    64.3350 ha         1 AJI       0.136000
     40 H8          44.0230    14.4100    62.7420 ha         1 AJI       0.140000
     41 H9          34.8260    19.4100    59.8430 h4         1 AJI       0.158000
     42 H10         41.3760    10.5860    64.3060 h5         1 AJI       0.067100
     43 HN24        39.2810    16.3370    60.6040 hn         1 AJI       0.368500
     44 S29         41.7010    18.3160    64.6000 ss         1 AJI       0.183000
     45 F27         42.1600    15.2700    69.6920 f          1 AJI      -0.174000
@<TRIPOS>BOND
     1     1    11 1   
     2     1    29 1   
     3     1    30 1   
     4     1    31 1   
     5     2    25 1   
     6     2    32 1   
     7     2    33 1   
     8     2    34 1   
     9     3     5 ar  
    10     3    12 ar  
    11     3    35 1   
    12     4     6 ar  
    13     4    12 ar  
    14     4    36 1   
    15     5    13 ar  
    16     5    37 1   
    17     6    13 ar  
    18     6    38 1   
    19     7     8 ar  
    20     7    14 ar  
    21     7    39 1   
    22     8    15 ar  
    23     8    40 1   
    24     9    11 2   
    25     9    27 1   
    26     9    41 1   
    27    10    20 2   
    28    10    25 1   
    29    10    42 1   
    30    11    21 1   
    31    12    45 1   
    32    13    44 1   
    33    14    16 ar  
    34    14    44 1   
    35    15    22 ar  
    36    15    28 1   
    37    16    19 1   
    38    16    22 ar  
    39    17    21 2   
    40    17    24 1   
    41    17    27 1   
    42    18    23 2   
    43    18    25 1   
    44    18    28 1   
    45    19    24 1   
    46    19    26 2   
    47    20    23 1   
    48    24    43 1   
@<TRIPOS>SUBSTRUCTURE
     1 AJI         1 TEMP              0 ****  ****    0 ROOT
