@<TRIPOS>MOLECULE
AJI
   45    48     1     0     0
SMALL
abcg2


@<TRIPOS>ATOM
      1 C1          35.6070    18.2500    57.3360 c3         1 AJI      -0.118400
      2 C2          40.6810    11.0520    63.1220 c3         1 AJI       0.059900
      3 C3          41.6600    16.2540    68.5290 ca         1 AJI      -0.164000
      4 C4          43.4240    17.7110    67.7130 ca         1 AJI      -0.164000
      5 C5          40.8960    16.5640    67.4110 ca         1 AJI      -0.033500
      6 C6          42.6510    18.0090    66.5960 ca         1 AJI      -0.033500
      7 C7          41.6880    15.5580    64.2000 ca         1 AJI      -0.088000
      8 C8          41.9470    14.5390    63.3100 ca         1 AJI      -0.120000
      9 C9          35.9960    19.5270    59.5050 cc         1 AJI      -0.304000
     10 C10         43.1130    10.4510    62.8430 cc         1 AJI       0.389400
     11 C11         36.2410    18.4820    58.6680 cd         1 AJI       0.321300
     12 C12         42.9100    16.8350    68.6520 ca         1 AJI       0.197000
     13 C13         41.3910    17.4340    66.4390 ca         1 AJI      -0.203000
     14 C14         40.7420    16.5520    63.9030 ca         1 AJI      -0.108000
     15 C15         41.2300    14.5130    62.1110 ca         1 AJI       0.424300
     16 C16         40.0990    16.4450    62.6580 ca         1 AJI       0.305500
     17 C17         37.6230    17.9300    60.3080 cc         1 AJI       0.551300
     18 C18         42.4470    12.0990    61.6230 cc         1 AJI       0.411800
     19 C19         39.0980    17.4460    62.1880 c          1 AJI       0.510600
     20 N20         44.1460    10.8570    62.1400 nd         1 AJI      -0.363000
     21 N21         37.1710    17.5770    59.1380 nd         1 AJI      -0.707000
     22 N22         40.3440    15.4390    61.8080 nb         1 AJI      -0.659000
     23 N23         43.7240    11.9090    61.3660 nd         1 AJI      -0.294000
     24 N24         38.5620    17.1710    60.9680 ns         1 AJI      -0.447400
     25 N25         42.0160    11.1890    62.5520 na         1 AJI      -0.358000
     26 O26         38.7850    18.4340    62.8440 o          1 AJI      -0.567100
     27 S28         36.9510    19.4030    60.9440 ss         1 AJI       0.027600
     28 S30         41.4290    13.2800    60.8370 ss         1 AJI      -0.228600
     29 H1          34.8950    19.0400    57.1020 hc         1 AJI       0.049700
     30 H1A         36.3650    18.2190    56.5500 hc         1 AJI       0.049700
     31 H1B         35.0810    17.2920    57.3220 hc         1 AJI       0.049700
     32 H2          40.6340    10.1060    63.6550 h1         1 AJI       0.064033
     33 H2A         40.4800    11.8700    63.8120 h1         1 AJI       0.064033
     34 H2B         39.9440    11.0600    62.3220 h1         1 AJI       0.064033
     35 H3          41.2970    15.5790    69.2920 ha         1 AJI       0.139500
     36 H4          44.4050    18.1460    67.8530 ha         1 AJI       0.139500
     37 H5          39.9160    16.1220    67.2900 ha         1 AJI       0.133000
     38 H6          43.0330    18.6860    65.8430 ha         1 AJI       0.133000
     39 H7          42.2300    15.5870    65.1320 ha         1 AJI       0.136000
     40 H8          42.6910    13.7920    63.5440 ha         1 AJI       0.140000
     41 H9          35.3190    20.3530    59.3620 h4         1 AJI       0.158000
     42 H10         43.1080     9.6430    63.5570 h5         1 AJI       0.067100
     43 HN24        38.8920    16.3310    60.5060 hn         1 AJI       0.368500
     44 S29         40.3830    17.8700    65.0340 ss         1 AJI       0.183000
     45 F27         43.6600    16.5350    69.7380 f          1 AJI      -0.174000
@<TRIPOS>BOND
     1     1    11 1   
     2     1    29 1   
     3     1    30 1   
     4     1    31 1   
     5     2    25 1   
     6     2    32 1   
     7     2    33 1   
     8     2    34 1   
     9     3     5 ar  
    10     3    12 ar  
    11     3    35 1   
    12     4     6 ar  
    13     4    12 ar  
    14     4    36 1   
    15     5    13 ar  
    16     5    37 1   
    17     6    13 ar  
    18     6    38 1   
    19     7     8 ar  
    20     7    14 ar  
    21     7    39 1   
    22     8    15 ar  
    23     8    40 1   
    24     9    11 2   
    25     9    27 1   
    26     9    41 1   
    27    10    20 2   
    28    10    25 1   
    29    10    42 1   
    30    11    21 1   
    31    12    45 1   
    32    13    44 1   
    33    14    16 ar  
    34    14    44 1   
    35    15    22 ar  
    36    15    28 1   
    37    16    19 1   
    38    16    22 ar  
    39    17    21 2   
    40    17    24 1   
    41    17    27 1   
    42    18    23 2   
    43    18    25 1   
    44    18    28 1   
    45    19    24 1   
    46    19    26 2   
    47    20    23 1   
    48    24    43 1   
@<TRIPOS>SUBSTRUCTURE
     1 AJI         1 TEMP              0 ****  ****    0 ROOT
