@<TRIPOS>MOLECULE
AJJ
   36    38     1     0     0
SMALL
No Charge or Current Charge


@<TRIPOS>ATOM
      1 C4           2.6680     0.7650    40.1550 c6         1 AJJ      -0.067900
      2 C5           2.3880     0.7160    41.6770 c6         1 AJJ       0.160300
      3 C6           4.6640     2.3420    40.1490 cc         1 AJJ       0.573300
      4 N1           4.2540     3.3450    39.3180 nc         1 AJJ      -0.739000
      5 C7           4.8470     4.3890    39.8500 cd         1 AJJ       0.572500
      6 C8           4.7670     5.7820    39.3710 ca         1 AJJ      -0.208500
      7 N2           5.4700     2.7030    41.1370 nd         1 AJJ      -0.378300
      8 C9           3.9920     6.1020    38.2340 ca         1 AJJ      -0.017000
      9 C10          3.9140     7.4290    37.7770 ca         1 AJJ      -0.187000
     10 C11          4.6060     8.4470    38.4460 ca         1 AJJ       0.167100
     11 C12          5.3790     8.1420    39.5750 ca         1 AJJ      -0.187000
     12 C13          5.4610     6.8170    40.0390 ca         1 AJJ      -0.017000
     13 N            3.1370    -0.3950    42.3240 n3         1 AJJ      -0.720600
     14 C            2.7800    -0.5570    43.7500 c3         1 AJJ       0.151100
     15 O            5.5980     4.0950    40.9460 os         1 AJJ      -0.121700
     16 C1           4.6050    -0.2610    42.1220 c6         1 AJJ       0.160300
     17 C2           4.9780    -0.1800    40.6160 c6         1 AJJ      -0.067900
     18 C3           4.1850     0.9260    39.8530 c6         1 AJJ      -0.092000
     19 O1           4.5220     9.7280    37.9920 oh         1 AJJ      -0.529100
     20 H1           2.0930     1.5800    39.6960 hc         1 AJJ       0.058200
     21 H2           2.3000    -0.1620    39.6970 hc         1 AJJ       0.058200
     22 H3           2.6610     1.6810    42.1310 h1         1 AJJ       0.036450
     23 H4           1.3060     0.5840    41.8280 h1         1 AJJ       0.036450
     24 H5           3.4470     5.3240    37.7020 ha         1 AJJ       0.137000
     25 H6           3.3150     7.6660    36.9020 ha         1 AJJ       0.129500
     26 H7           5.9200     8.9260    40.1010 ha         1 AJJ       0.129500
     27 H8           6.0670     6.6030    40.9180 ha         1 AJJ       0.137000
     28 H10          1.7000    -0.7200    43.8640 h1         1 AJJ       0.030700
     29 H11          3.2990    -1.4220    44.1840 h1         1 AJJ       0.030700
     30 H12          3.0560     0.3360    44.3280 h1         1 AJJ       0.030700
     31 H13          5.1260    -1.1240    42.5630 h1         1 AJJ       0.036450
     32 H14          4.9790     0.6300    42.6470 h1         1 AJJ       0.036450
     33 H15          4.7650    -1.1540    40.1550 hc         1 AJJ       0.058200
     34 H16          6.0600    -0.0250    40.5050 hc         1 AJJ       0.058200
     35 H17          4.3320     0.7500    38.7790 hc         1 AJJ       0.072700
     36 H18          5.0650    10.2990    38.5760 ho         1 AJJ       0.469000
@<TRIPOS>BOND
     1     1     2 1   
     2     1    18 1   
     3     1    20 1   
     4     1    21 1   
     5     2    13 1   
     6     2    22 1   
     7     2    23 1   
     8     3     4 1   
     9     3     7 2   
    10     3    18 1   
    11     4     5 2   
    12     5     6 1   
    13     5    15 1   
    14     6     8 ar  
    15     6    12 ar  
    16     7    15 1   
    17     8     9 ar  
    18     8    24 1   
    19     9    10 ar  
    20     9    25 1   
    21    10    11 ar  
    22    10    19 1   
    23    11    12 ar  
    24    11    26 1   
    25    12    27 1   
    26    13    14 1   
    27    13    16 1   
    28    14    28 1   
    29    14    29 1   
    30    14    30 1   
    31    16    17 1   
    32    16    31 1   
    33    16    32 1   
    34    17    18 1   
    35    17    33 1   
    36    17    34 1   
    37    18    35 1   
    38    19    36 1   
@<TRIPOS>SUBSTRUCTURE
     1 AJJ         1 TEMP              0 ****  ****    0 ROOT
