@<TRIPOS>MOLECULE
AJJ
   36    38     1     0     0
SMALL
abcg2


@<TRIPOS>ATOM
      1 C4           2.7940     0.7090    40.0460 c6         1 AJJ      -0.067900
      2 C5           2.4130     0.7500    41.5190 c6         1 AJJ       0.160300
      3 C6           4.7770     2.2460    40.0550 cc         1 AJJ       0.573300
      4 N1           4.2270     3.3020    39.3630 nc         1 AJJ      -0.739000
      5 C7           4.9080     4.3340    39.7800 cd         1 AJJ       0.572500
      6 C8           4.7780     5.7240    39.3910 ca         1 AJJ      -0.208500
      7 N2           5.7430     2.5940    40.8610 nd         1 AJJ      -0.378300
      8 C9           3.8000     6.0970    38.4590 ca         1 AJJ      -0.017000
      9 C10          3.6610     7.4160    38.0740 ca         1 AJJ      -0.187000
     10 C11          4.5040     8.3890    38.6160 ca         1 AJJ       0.167100
     11 C12          5.4830     8.0300    39.5450 ca         1 AJJ      -0.187000
     12 C13          5.6170     6.7080    39.9280 ca         1 AJJ      -0.017000
     13 N            3.0910    -0.3060    42.2690 n3         1 AJJ      -0.720600
     14 C            2.6470    -0.3360    43.6530 c3         1 AJJ       0.151100
     15 O            5.8410     3.9930    40.6860 os         1 AJJ      -0.121700
     16 C1           4.5440    -0.1530    42.1880 c6         1 AJJ       0.160300
     17 C2           5.0320    -0.1900    40.7430 c6         1 AJJ      -0.067900
     18 C3           4.3170     0.8340    39.8520 c6         1 AJJ      -0.092000
     19 O1           4.3290     9.6690    38.2050 oh         1 AJJ      -0.529100
     20 H1           2.2760     1.5010    39.5050 hc         1 AJJ       0.058200
     21 H2           2.4760    -0.2460    39.6220 hc         1 AJJ       0.058200
     22 H3           2.6530     1.7440    41.9400 h1         1 AJJ       0.036450
     23 H4           1.3360     0.6100    41.6260 h1         1 AJJ       0.036450
     24 H5           3.1490     5.3420    38.0410 ha         1 AJJ       0.137000
     25 H6           2.9070     7.7080    37.3550 ha         1 AJJ       0.129500
     26 H7           6.1340     8.7910    39.9600 ha         1 AJJ       0.129500
     27 H8           6.3780     6.4380    40.6470 ha         1 AJJ       0.137000
     28 H10          1.5670    -0.4920    43.6910 h1         1 AJJ       0.030700
     29 H11          3.1350    -1.1580    44.1800 h1         1 AJJ       0.030700
     30 H12          2.8770     0.6000    44.1900 h1         1 AJJ       0.030700
     31 H13          5.0050    -0.9700    42.7480 h1         1 AJJ       0.036450
     32 H14          4.8600     0.7880    42.6690 h1         1 AJJ       0.036450
     33 H15          4.8320    -1.1820    40.3320 hc         1 AJJ       0.058200
     34 H16          6.1120    -0.0370    40.7180 hc         1 AJJ       0.058200
     35 H17          4.5420     0.6070    38.8050 hc         1 AJJ       0.072700
     36 H18          4.9640    10.2530    38.6430 ho         1 AJJ       0.469000
@<TRIPOS>BOND
     1     1     2 1   
     2     1    18 1   
     3     1    20 1   
     4     1    21 1   
     5     2    13 1   
     6     2    22 1   
     7     2    23 1   
     8     3     4 1   
     9     3     7 2   
    10     3    18 1   
    11     4     5 2   
    12     5     6 1   
    13     5    15 1   
    14     6     8 ar  
    15     6    12 ar  
    16     7    15 1   
    17     8     9 ar  
    18     8    24 1   
    19     9    10 ar  
    20     9    25 1   
    21    10    11 ar  
    22    10    19 1   
    23    11    12 ar  
    24    11    26 1   
    25    12    27 1   
    26    13    14 1   
    27    13    16 1   
    28    14    28 1   
    29    14    29 1   
    30    14    30 1   
    31    16    17 1   
    32    16    31 1   
    33    16    32 1   
    34    17    18 1   
    35    17    33 1   
    36    17    34 1   
    37    18    35 1   
    38    19    36 1   
@<TRIPOS>SUBSTRUCTURE
     1 AJJ         1 TEMP              0 ****  ****    0 ROOT
