@<TRIPOS>MOLECULE
AJK
   42    44     1     0     0
SMALL
No Charge or Current Charge


@<TRIPOS>ATOM
      1 C8           8.1360     0.6980     0.3520 cc         1 AJK      -0.171000
      2 C3           1.3740    -0.4020    -1.5080 c3         1 AJK       0.162900
      3 C4           3.7400    -0.1680    -0.4830 c3         1 AJK       0.085600
      4 C1          -0.8030     0.8000    -1.0330 ca         1 AJK      -0.082000
      5 N1           6.7990    -1.0580     0.5160 na         1 AJK      -0.109000
      6 C2          -0.0740    -0.4030    -1.0730 ca         1 AJK      -0.189300
      7 C5           4.4940     0.0430     0.8410 c3         1 AJK      -0.015100
      8 C6           5.9870     0.0800     0.6370 cd         1 AJK      -0.241300
      9 C7           8.1350    -0.6700     0.3370 cd         1 AJK      -0.155000
     10 C9           6.8210     1.1580     0.5370 cc         1 AJK      -0.125000
     11 C10         -0.7020    -1.6050    -0.7050 ca         1 AJK      -0.080000
     12 C13         -4.2200    -0.4440     0.2090 cp         1 AJK      -0.086000
     13 C14         -4.6880     0.3730     1.2680 ca         1 AJK      -0.081500
     14 C12         -2.7940    -0.4000    -0.2380 cp         1 AJK       0.046000
     15 C11         -2.0460    -1.6010    -0.2960 ca         1 AJK      -0.091000
     16 C15         -6.0280     0.3130     1.6910 ca         1 AJK      -0.105000
     17 C16         -6.9230    -0.5720     1.0660 ca         1 AJK      -0.080000
     18 C18         -5.1360    -1.3370    -0.3990 ca         1 AJK      -0.081500
     19 C17         -6.4760    -1.3990     0.0220 ca         1 AJK      -0.105000
     20 C           -2.1480     0.8080    -0.6230 ca         1 AJK       0.122000
     21 N            2.2280    -0.2010    -0.2750 ny         1 AJK      -0.825000
     22 H1           9.0060     1.3410     0.2410 ha         1 AJK       0.153000
     23 H2           1.6410    -1.3510    -1.9830 hx         1 AJK       0.101700
     24 H3           1.5700     0.4050    -2.2210 hx         1 AJK       0.101700
     25 H4           3.9900     0.6440    -1.1720 hx         1 AJK       0.101700
     26 H5           4.0600    -1.1120    -0.9350 hx         1 AJK       0.101700
     27 H6          -0.3300     1.7340    -1.3280 ha         1 AJK       0.131000
     28 H7           6.4740    -2.0210     0.5560 hn         1 AJK       0.341000
     29 H8           4.1570     0.9800     1.3000 hc         1 AJK       0.068200
     30 H9           4.2290    -0.7610     1.5400 hc         1 AJK       0.068200
     31 H10          8.9480    -1.3790     0.2190 h4         1 AJK       0.163000
     32 H11          6.5340     2.2050     0.5890 ha         1 AJK       0.138000
     33 H12         -0.1520    -2.5430    -0.7340 ha         1 AJK       0.122000
     34 H13         -4.0040     1.0520     1.7710 ha         1 AJK       0.115500
     35 H14         -2.5160    -2.5380    -0.0080 ha         1 AJK       0.146000
     36 H15         -6.3700     0.9480     2.5040 ha         1 AJK       0.126500
     37 H16         -7.9600    -0.6190     1.3930 ha         1 AJK       0.128000
     38 H17         -4.8040    -1.9820    -1.2100 ha         1 AJK       0.115500
     39 H18         -7.1670    -2.0870    -0.4600 ha         1 AJK       0.126500
     40 H19          1.9180     0.6720     0.2010 hn         1 AJK       0.500500
     41 H20          1.9810    -0.9360     0.4190 hn         1 AJK       0.500500
     42 Cl          -3.0020     2.3520    -0.6530 cl         1 AJK      -0.145000
@<TRIPOS>BOND
     1     1     9 2   
     2     1    10 1   
     3     1    22 1   
     4     2     6 1   
     5     2    21 1   
     6     2    23 1   
     7     2    24 1   
     8     3     7 1   
     9     3    21 1   
    10     3    25 1   
    11     3    26 1   
    12     4     6 ar  
    13     4    20 ar  
    14     4    27 1   
    15     5     8 1   
    16     5     9 1   
    17     5    28 1   
    18     6    11 ar  
    19     7     8 1   
    20     7    29 1   
    21     7    30 1   
    22     8    10 2   
    23     9    31 1   
    24    10    32 1   
    25    11    15 ar  
    26    11    33 1   
    27    12    13 ar  
    28    12    14 1   
    29    12    18 ar  
    30    13    16 ar  
    31    13    34 1   
    32    14    15 ar  
    33    14    20 ar  
    34    15    35 1   
    35    16    17 ar  
    36    16    36 1   
    37    17    19 ar  
    38    17    37 1   
    39    18    19 ar  
    40    18    38 1   
    41    19    39 1   
    42    20    42 1   
    43    21    40 1   
    44    21    41 1   
@<TRIPOS>SUBSTRUCTURE
     1 AJK         1 TEMP              0 ****  ****    0 ROOT
