@<TRIPOS>MOLECULE
AJK
   42    44     1     0     0
SMALL
abcg2


@<TRIPOS>ATOM
      1 C8           8.1020     0.6360     0.1200 cc         1 AJK      -0.171000
      2 C3           1.3990    -0.4320    -1.3060 c3         1 AJK       0.162900
      3 C4           3.6990    -0.1480    -0.3780 c3         1 AJK       0.085600
      4 C1          -0.7690     0.7610    -0.9430 ca         1 AJK      -0.082000
      5 N1           6.6700    -1.0070     0.4710 na         1 AJK      -0.109000
      6 C2          -0.0550    -0.4300    -0.9480 ca         1 AJK      -0.189300
      7 C5           4.4940     0.1540     0.8860 c3         1 AJK      -0.015100
      8 C6           5.9580     0.1470     0.6070 cd         1 AJK      -0.241300
      9 C7           7.9680    -0.7290     0.1790 cd         1 AJK      -0.155000
     10 C9           6.8250     1.1910     0.3900 cc         1 AJK      -0.125000
     11 C10         -0.6980    -1.6110    -0.5980 ca         1 AJK      -0.080000
     12 C13         -4.1960    -0.4430     0.1750 cp         1 AJK      -0.086000
     13 C14         -4.6580     0.2700     1.2800 ca         1 AJK      -0.081500
     14 C12         -2.7700    -0.4080    -0.2150 cp         1 AJK       0.046000
     15 C11         -2.0350    -1.5920    -0.2390 ca         1 AJK      -0.091000
     16 C15         -5.9890     0.1900     1.6590 ca         1 AJK      -0.105000
     17 C16         -6.8770    -0.5970     0.9360 ca         1 AJK      -0.080000
     18 C18         -5.0900    -1.2360    -0.5410 ca         1 AJK      -0.081500
     19 C17         -6.4240    -1.3100    -0.1650 ca         1 AJK      -0.105000
     20 C           -2.1070     0.7640    -0.5810 ca         1 AJK       0.122000
     21 N            2.2360    -0.1460    -0.1020 ny         1 AJK      -0.825000
     22 H1           9.0130     1.1740    -0.0910 ha         1 AJK       0.153000
     23 H2           1.7170    -1.4000    -1.6870 hx         1 AJK       0.101700
     24 H3           1.6410     0.3320    -2.0430 hx         1 AJK       0.101700
     25 H4           3.8790     0.6020    -1.1460 hx         1 AJK       0.101700
     26 H5           3.9420    -1.1300    -0.7800 hx         1 AJK       0.101700
     27 H6          -0.2890     1.6870    -1.2340 ha         1 AJK       0.131000
     28 H7           6.2980    -1.9350     0.5930 hn         1 AJK       0.341000
     29 H8           4.2150     1.1370     1.2710 hc         1 AJK       0.068200
     30 H9           4.2460    -0.5770     1.6610 hc         1 AJK       0.068200
     31 H10          8.6910    -1.5160     0.0430 h4         1 AJK       0.163000
     32 H11          6.5640     2.2380     0.4240 ha         1 AJK       0.138000
     33 H12         -0.1560    -2.5480    -0.6080 ha         1 AJK       0.122000
     34 H13         -3.9730     0.8790     1.8550 ha         1 AJK       0.115500
     35 H14         -2.5240    -2.5170     0.0390 ha         1 AJK       0.146000
     36 H15         -6.3340     0.7410     2.5250 ha         1 AJK       0.126500
     37 H16         -7.9160    -0.6560     1.2320 ha         1 AJK       0.128000
     38 H17         -4.7430    -1.7910    -1.4050 ha         1 AJK       0.115500
     39 H18         -7.1080    -1.9270    -0.7330 ha         1 AJK       0.126500
     40 H19          1.9660     0.7600     0.2870 hn         1 AJK       0.500500
     41 H20          2.0260    -0.8310     0.6270 hn         1 AJK       0.500500
     42 CL          -2.9580     2.2700    -0.6430 cl         1 AJK      -0.145000
@<TRIPOS>BOND
     1     1     9 2   
     2     1    10 1   
     3     1    22 1   
     4     2     6 1   
     5     2    21 1   
     6     2    23 1   
     7     2    24 1   
     8     3     7 1   
     9     3    21 1   
    10     3    25 1   
    11     3    26 1   
    12     4     6 ar  
    13     4    20 ar  
    14     4    27 1   
    15     5     8 1   
    16     5     9 1   
    17     5    28 1   
    18     6    11 ar  
    19     7     8 1   
    20     7    29 1   
    21     7    30 1   
    22     8    10 2   
    23     9    31 1   
    24    10    32 1   
    25    11    15 ar  
    26    11    33 1   
    27    12    13 ar  
    28    12    14 1   
    29    12    18 ar  
    30    13    16 ar  
    31    13    34 1   
    32    14    15 ar  
    33    14    20 ar  
    34    15    35 1   
    35    16    17 ar  
    36    16    36 1   
    37    17    19 ar  
    38    17    37 1   
    39    18    19 ar  
    40    18    38 1   
    41    19    39 1   
    42    20    42 1   
    43    21    40 1   
    44    21    41 1   
@<TRIPOS>SUBSTRUCTURE
     1 AJK         1 TEMP              0 ****  ****    0 ROOT
