@<TRIPOS>MOLECULE
AJL
   48    51     1     0     0
SMALL
bcc


@<TRIPOS>ATOM
      1 C4          -2.3010     1.0850     0.2360 ca         1 AJL      -0.185000
      2 C14          2.1100     1.2310    -0.3690 cc         1 AJL      -0.148400
      3 C5          -1.4770    -0.0470     0.2470 ca         1 AJL      -0.095300
      4 C6          -2.0310    -1.2970     0.0320 ca         1 AJL      -0.055300
      5 C11         -4.0140     3.3090     0.2700 c3         1 AJL       0.121700
      6 C7           0.0010     0.1500     0.4960 c6         1 AJL       0.170000
      7 C8           0.2810    -2.2220    -0.0910 c6         1 AJL       0.094000
      8 C9          -1.1910    -2.5440     0.0890 c6         1 AJL      -0.048100
      9 C10         -6.1780    -1.5490    -0.6610 c3         1 AJL       0.121700
     10 C13          0.6910     0.8830    -0.6720 c3         1 AJL      -0.014200
     11 N1           0.6450    -1.1170     0.7710 n          1 AJL      -0.479800
     12 N2           3.9030     2.3290     0.4130 na         1 AJL      -0.172400
     13 C3          -3.6590     0.9860     0.0110 ca         1 AJL       0.111100
     14 C1          -3.4080    -1.4000    -0.2080 ca         1 AJL      -0.191000
     15 C15          2.5470     2.3660     0.2570 cd         1 AJL      -0.114100
     16 C16          4.3860     1.1660    -0.1110 ca         1 AJL      -0.047200
     17 C17          3.2810     0.4410    -0.6130 ca         1 AJL      -0.092800
     18 C18          5.6920     0.6870    -0.1940 ca         1 AJL      -0.147000
     19 C19          5.8830    -0.5430    -0.7930 ca         1 AJL      -0.104000
     20 C2          -4.2250    -0.2870    -0.2230 ca         1 AJL       0.120100
     21 C20          4.8010    -1.2810    -1.3010 ca         1 AJL      -0.153000
     22 C21          3.5100    -0.8020    -1.2160 ca         1 AJL      -0.073000
     23 O1          -5.5530    -0.3020    -0.4420 os         1 AJL      -0.296900
     24 O2          -4.5210     2.0200    -0.0040 os         1 AJL      -0.295900
     25 O3           2.1490    -2.2500     2.0590 o          1 AJL      -0.606100
     26 H1          -1.8550     2.0530     0.4290 ha         1 AJL       0.134000
     27 H2          -4.8600     3.9910     0.2220 h1         1 AJL       0.039033
     28 H3          -3.5690     3.3690     1.2670 h1         1 AJL       0.039033
     29 H4          -3.2680     3.6220    -0.4660 h1         1 AJL       0.039033
     30 H5           0.1180     0.7760     1.3860 h1         1 AJL       0.058700
     31 H6           0.9070    -3.0780     0.1450 h1         1 AJL       0.059200
     32 H7           0.4780    -1.9500    -1.1320 h1         1 AJL       0.059200
     33 H8          -1.3380    -3.0440     1.0510 hc         1 AJL       0.057700
     34 H9          -1.5050    -3.2530    -0.6800 hc         1 AJL       0.057700
     35 H10         -7.2380    -1.3460    -0.7880 h1         1 AJL       0.040367
     36 H11         -5.8040    -2.0410    -1.5630 h1         1 AJL       0.040367
     37 H12         -6.0480    -2.2270     0.1870 h1         1 AJL       0.040367
     38 H13          1.6630    -0.2940     2.3200 h5         1 AJL       0.008200
     39 H14          0.1250     1.7920    -0.8890 hc         1 AJL       0.054200
     40 H15          0.6280     0.2670    -1.5730 hc         1 AJL       0.054200
     41 H16          4.4540     3.0610     0.8280 hn         1 AJL       0.299700
     42 H17         -3.8240    -2.3840    -0.3840 ha         1 AJL       0.138000
     43 H18          1.9800     3.2150     0.6060 h4         1 AJL       0.158000
     44 H19          6.5280     1.2580     0.1920 ha         1 AJL       0.130000
     45 H20          6.8850    -0.9440    -0.8760 ha         1 AJL       0.128000
     46 H21          4.9890    -2.2400    -1.7680 ha         1 AJL       0.130000
     47 H22          2.6890    -1.3820    -1.6200 ha         1 AJL       0.131000
     48 C12          1.5380    -1.2370     1.7650 c          1 AJL       0.681900
@<TRIPOS>BOND
     1     1     3 ar  
     2     1    13 ar  
     3     1    26 1   
     4     2    10 1   
     5     2    15 2   
     6     2    17 1   
     7     3     4 ar  
     8     3     6 1   
     9     4     8 1   
    10     4    14 ar  
    11     5    24 1   
    12     5    27 1   
    13     5    28 1   
    14     5    29 1   
    15     6    10 1   
    16     6    11 1   
    17     6    30 1   
    18     7     8 1   
    19     7    11 1   
    20     7    31 1   
    21     7    32 1   
    22     8    33 1   
    23     8    34 1   
    24     9    23 1   
    25     9    35 1   
    26     9    36 1   
    27     9    37 1   
    28    10    39 1   
    29    10    40 1   
    30    11    48 1   
    31    12    15 1   
    32    12    16 1   
    33    12    41 1   
    34    13    20 ar  
    35    13    24 1   
    36    14    20 ar  
    37    14    42 1   
    38    15    43 1   
    39    16    17 ar  
    40    16    18 ar  
    41    17    22 ar  
    42    18    19 ar  
    43    18    44 1   
    44    19    21 ar  
    45    19    45 1   
    46    20    23 1   
    47    21    22 ar  
    48    21    46 1   
    49    22    47 1   
    50    25    48 2   
    51    38    48 1   
@<TRIPOS>SUBSTRUCTURE
     1 AJL         1 TEMP              0 ****  ****    0 ROOT
