@<TRIPOS>MOLECULE
AJL
   48    51     1     0     0
SMALL
No Charge or Current Charge


@<TRIPOS>ATOM
      1 C4          -2.3000     1.0880     0.2290 ca         1 AJL      -0.167000
      2 C14          2.1510     1.2930    -0.3230 cc         1 AJL      -0.148400
      3 C5          -1.4810    -0.0610     0.2430 ca         1 AJL      -0.095300
      4 C6          -2.0700    -1.3320     0.0460 ca         1 AJL      -0.055300
      5 C11         -4.0120     3.4330     0.1690 c3         1 AJL       0.144900
      6 C7           0.0350     0.0950     0.5010 c6         1 AJL       0.170000
      7 C8           0.2700    -2.3170    -0.1190 c6         1 AJL       0.094000
      8 C9          -1.2230    -2.6040     0.1050 c6         1 AJL      -0.048100
      9 C10         -6.3150    -1.6180    -0.6460 c3         1 AJL       0.144900
     10 C13          0.7260     0.9080    -0.6340 c3         1 AJL      -0.014200
     11 N1           0.7140    -1.2010     0.7440 n          1 AJL      -0.412800
     12 N2           3.9900     2.4180     0.4670 na         1 AJL      -0.222700
     13 C3          -3.6900     0.9830    -0.0000 ca         1 AJL       0.111100
     14 C1          -3.4540    -1.4410    -0.1760 ca         1 AJL      -0.173000
     15 C15          2.5820     2.4520     0.3160 cd         1 AJL      -0.164100
     16 C16          4.4030     1.2230    -0.0920 ca         1 AJL      -0.047200
     17 C17          3.3360     0.5230    -0.5810 ca         1 AJL      -0.092800
     18 C18          5.7110     0.7290    -0.1890 ca         1 AJL      -0.129000
     19 C19          5.9060    -0.5220    -0.8110 ca         1 AJL      -0.086000
     20 C2          -4.2710    -0.2890    -0.2070 ca         1 AJL       0.120100
     21 C20          4.8020    -1.2440    -1.3210 ca         1 AJL      -0.135000
     22 C21          3.4960    -0.7210    -1.2110 ca         1 AJL      -0.055000
     23 O1          -5.6370    -0.3680    -0.4270 os         1 AJL      -0.320100
     24 O2          -4.5120     2.0990    -0.0260 os         1 AJL      -0.319100
     25 O3           2.2030    -2.4180     2.0310 o          1 AJL      -0.606100
     26 H1          -1.8400     2.0560     0.4020 ha         1 AJL       0.116000
     27 H2          -4.8320     4.1590     0.1050 h1         1 AJL       0.039033
     28 H3          -3.5450     3.5350     1.1570 h1         1 AJL       0.039033
     29 H4          -3.2720     3.6890    -0.6000 h1         1 AJL       0.039033
     30 H5           0.1300     0.6970     1.4170 h1         1 AJL       0.058700
     31 H6           0.8570    -3.2260     0.0750 h1         1 AJL       0.059200
     32 H7           0.4300    -2.0430    -1.1710 h1         1 AJL       0.059200
     33 H8          -1.3570    -3.0770     1.0880 hc         1 AJL       0.057700
     34 H9          -1.5700    -3.3310    -0.6410 hc         1 AJL       0.057700
     35 H10         -7.3870    -1.4460    -0.8000 h1         1 AJL       0.040367
     36 H11         -5.9200    -2.1250    -1.5360 h1         1 AJL       0.040367
     37 H12         -6.1980    -2.2820     0.2200 h1         1 AJL       0.040367
     38 H13          1.8660    -0.4060     2.3110 h5         1 AJL       0.008200
     39 H14          0.1610     1.8260    -0.8310 hc         1 AJL       0.054200
     40 H15          0.6930     0.3400    -1.5710 hc         1 AJL       0.054200
     41 H16          4.5780     3.1250     0.8990 hn         1 AJL       0.350000
     42 H17         -3.8790    -2.4300    -0.3190 ha         1 AJL       0.120000
     43 H18          1.9910     3.2870     0.6840 h4         1 AJL       0.208000
     44 H19          6.5540     1.2930     0.2030 ha         1 AJL       0.112000
     45 H20          6.9100    -0.9320    -0.9000 ha         1 AJL       0.110000
     46 H21          4.9590    -2.2070    -1.8030 ha         1 AJL       0.112000
     47 H22          2.6440    -1.2660    -1.6050 ha         1 AJL       0.113000
     48 C12          1.6630    -1.3480     1.7690 c          1 AJL       0.614900
@<TRIPOS>BOND
     1     1     3 ar  
     2     1    13 ar  
     3     1    26 1   
     4     2    10 1   
     5     2    15 2   
     6     2    17 1   
     7     3     4 ar  
     8     3     6 1   
     9     4     8 1   
    10     4    14 ar  
    11     5    24 1   
    12     5    27 1   
    13     5    28 1   
    14     5    29 1   
    15     6    10 1   
    16     6    11 1   
    17     6    30 1   
    18     7     8 1   
    19     7    11 1   
    20     7    31 1   
    21     7    32 1   
    22     8    33 1   
    23     8    34 1   
    24     9    23 1   
    25     9    35 1   
    26     9    36 1   
    27     9    37 1   
    28    10    39 1   
    29    10    40 1   
    30    11    48 1   
    31    12    15 1   
    32    12    16 1   
    33    12    41 1   
    34    13    20 ar  
    35    13    24 1   
    36    14    20 ar  
    37    14    42 1   
    38    15    43 1   
    39    16    17 ar  
    40    16    18 ar  
    41    17    22 ar  
    42    18    19 ar  
    43    18    44 1   
    44    19    21 ar  
    45    19    45 1   
    46    20    23 1   
    47    21    22 ar  
    48    21    46 1   
    49    22    47 1   
    50    25    48 2   
    51    38    48 1   
@<TRIPOS>SUBSTRUCTURE
     1 AJL         1 TEMP              0 ****  ****    0 ROOT
