@<TRIPOS>MOLECULE
AJM
   44    49     1     0     0
SMALL
bcc


@<TRIPOS>ATOM
      1 O1          -0.3000    -2.9590    -0.2610 oh         1 AJM      -0.589800
      2 C15          0.2100    -1.7250    -0.7110 c5         1 AJM       0.169100
      3 C5          -0.5740    -0.6020    -0.0280 c5         1 AJM      -0.000700
      4 C4           0.0640    -0.5730     1.3650 c5         1 AJM      -0.058400
      5 C6          -2.0700    -0.5320     0.0520 ca         1 AJM      -0.118300
      6 C7          -3.0470    -1.4920     0.2210 ca         1 AJM      -0.067000
      7 C8          -4.3770    -1.0920     0.3770 ca         1 AJM      -0.170000
      8 C9          -4.7010     0.2570     0.3810 ca         1 AJM      -0.099000
      9 C11         -2.4040     0.8330     0.0700 ca         1 AJM       0.121600
     10 C10         -3.7220     1.2380     0.2250 ca         1 AJM      -0.173000
     11 C14          1.6660    -1.4770    -0.2180 c5         1 AJM      -0.139700
     12 C13          2.6110    -0.8010    -1.2220 c6         1 AJM      -0.053700
     13 C16          3.8040    -0.2440    -0.4370 c6         1 AJM      -0.149400
     14 C3           1.5260    -0.5090     0.9920 c5         1 AJM       0.162500
     15 N2           1.8520     0.8560     0.5680 n3         1 AJM      -0.661600
     16 C17          3.2870     0.9670     0.3730 c6         1 AJM       0.369300
     17 O2           3.8830     1.0900     1.6380 oh         1 AJM      -0.580800
     18 C2           1.1860     1.1540    -0.7110 c6         1 AJM       0.178500
     19 C12          1.9080     0.3970    -1.8570 c6         1 AJM      -0.116400
     20 C1          -0.2880     0.7420    -0.7200 c5         1 AJM       0.201500
     21 N1          -1.2680     1.6230    -0.0900 nh         1 AJM      -0.605000
     22 C18         -1.4210     2.9440    -0.6470 c3         1 AJM       0.178100
     23 HO1          0.2930    -3.6560    -0.5560 ho         1 AJM       0.402000
     24 H15          0.1330    -1.6600    -1.8050 h1         1 AJM       0.041700
     25 H41         -0.1720    -1.4900     1.9060 hc         1 AJM       0.074700
     26 H42         -0.2560     0.2750     1.9710 hc         1 AJM       0.074700
     27 H7          -2.7910    -2.5420     0.2200 ha         1 AJM       0.146000
     28 H8          -5.1540    -1.8360     0.4930 ha         1 AJM       0.130000
     29 H9          -5.7340     0.5600     0.5000 ha         1 AJM       0.126000
     30 H10         -4.0000     2.2840     0.2250 ha         1 AJM       0.133000
     31 H14          2.1080    -2.4260     0.1030 hc         1 AJM       0.059700
     32 H13          2.9450    -1.5060    -1.9850 hc         1 AJM       0.058700
     33 H161         4.2180    -1.0100     0.2280 hc         1 AJM       0.051700
     34 H162         4.6040     0.0620    -1.1150 hc         1 AJM       0.051700
     35 H3           2.1800    -0.7790     1.8210 h1         1 AJM       0.084700
     36 H17          3.4580     1.8860    -0.2080 h2         1 AJM       0.046700
     37 HO2          4.8140     0.8610     1.5600 ho         1 AJM       0.407000
     38 H2           1.2640     2.2310    -0.8880 h1         1 AJM       0.072700
     39 H121         1.2090     0.0920    -2.6370 hc         1 AJM       0.050200
     40 H122         2.6400     1.0430    -2.3470 hc         1 AJM       0.050200
     41 H1          -0.5720     0.6430    -1.7820 h1         1 AJM       0.031700
     42 H181        -1.7330     2.9290    -1.6990 h1         1 AJM       0.036033
     43 H182        -2.1610     3.5080    -0.0800 h1         1 AJM       0.036033
     44 H183        -0.4850     3.4940    -0.5760 h1         1 AJM       0.036033
@<TRIPOS>BOND
     1     1     2 1   
     2     1    23 1   
     3     2     3 1   
     4     2    11 1   
     5     2    24 1   
     6     3     4 1   
     7     3     5 1   
     8     3    20 1   
     9     4    14 1   
    10     4    25 1   
    11     4    26 1   
    12     5     6 ar  
    13     5     9 ar  
    14     6     7 ar  
    15     6    27 1   
    16     7     8 ar  
    17     7    28 1   
    18     8    10 ar  
    19     8    29 1   
    20     9    10 ar  
    21     9    21 1   
    22    10    30 1   
    23    11    12 1   
    24    11    14 1   
    25    11    31 1   
    26    12    13 1   
    27    12    19 1   
    28    12    32 1   
    29    13    16 1   
    30    13    33 1   
    31    13    34 1   
    32    14    15 1   
    33    14    35 1   
    34    15    16 1   
    35    15    18 1   
    36    16    17 1   
    37    16    36 1   
    38    17    37 1   
    39    18    19 1   
    40    18    20 1   
    41    18    38 1   
    42    19    39 1   
    43    19    40 1   
    44    20    21 1   
    45    20    41 1   
    46    21    22 1   
    47    22    42 1   
    48    22    43 1   
    49    22    44 1   
@<TRIPOS>SUBSTRUCTURE
     1 AJM         1 TEMP              0 ****  ****    0 ROOT
