@<TRIPOS>MOLECULE
AJM
   44    49     1     0     0
SMALL
No Charge or Current Charge


@<TRIPOS>ATOM
      1 O1          -0.2780    -3.0340    -0.2310 oh         1 AJM      -0.652000
      2 C15          0.1750    -1.7640    -0.7020 c5         1 AJM       0.192300
      3 C5          -0.5830    -0.5550    -0.0470 c5         1 AJM      -0.000700
      4 C4          -0.0020    -0.4960     1.3820 c5         1 AJM      -0.058400
      5 C6          -2.1010    -0.4950     0.0580 ca         1 AJM      -0.118300
      6 C7          -3.0410    -1.5130     0.2940 ca         1 AJM      -0.049000
      7 C8          -4.3980    -1.1550     0.4350 ca         1 AJM      -0.152000
      8 C9          -4.7970     0.1980     0.3560 ca         1 AJM      -0.081000
      9 C11         -2.4950     0.8350    -0.0070 ca         1 AJM       0.260000
     10 C10         -3.8390     1.2080     0.1330 ca         1 AJM      -0.155000
     11 C14          1.6660    -1.4940    -0.2100 c5         1 AJM      -0.139700
     12 C13          2.6540    -0.8490    -1.2540 c6         1 AJM      -0.053700
     13 C16          3.8700    -0.2740    -0.4610 c6         1 AJM      -0.149400
     14 C3           1.5030    -0.5340     1.0530 c5         1 AJM       0.162500
     15 N2           1.9010     0.8420     0.5750 n3         1 AJM      -0.661600
     16 C17          3.3750     0.9230     0.4280 c6         1 AJM       0.392500
     17 O2           3.9840     0.8830     1.7100 oh         1 AJM      -0.643000
     18 C2           1.2580     1.2020    -0.7590 c6         1 AJM       0.178500
     19 C12          1.9800     0.3870    -1.8970 c6         1 AJM      -0.116400
     20 C1          -0.2620     0.7980    -0.8020 c5         1 AJM       0.201500
     21 N1          -1.3830     1.6460    -0.2810 nh         1 AJM      -0.743400
     22 C18         -1.5070     3.0830    -0.5910 c3         1 AJM       0.178100
     23 HO1          0.2780    -3.7120    -0.6720 ho         1 AJM       0.441000
     24 H15          0.0950    -1.7360    -1.7970 h1         1 AJM       0.041700
     25 H41         -0.3020    -1.3640     1.9790 hc         1 AJM       0.074700
     26 H42         -0.2880     0.4000     1.9440 hc         1 AJM       0.074700
     27 H7          -2.7370    -2.5530     0.3790 ha         1 AJM       0.128000
     28 H8          -5.1420    -1.9270     0.6150 ha         1 AJM       0.112000
     29 H9          -5.8470     0.4620     0.4670 ha         1 AJM       0.108000
     30 H10         -4.1400     2.2490     0.0640 ha         1 AJM       0.115000
     31 H14          2.1460    -2.4310     0.0950 hc         1 AJM       0.059700
     32 H13          2.9750    -1.5760    -2.0140 hc         1 AJM       0.058700
     33 H161         4.3210    -1.0650     0.1530 hc         1 AJM       0.051700
     34 H162         4.6540     0.0730    -1.1480 hc         1 AJM       0.051700
     35 H3           2.0940    -0.8650     1.9200 h1         1 AJM       0.084700
     36 H17          3.6270     1.8770    -0.0630 h2         1 AJM       0.046700
     37 HO2          4.9450     0.9690     1.5450 ho         1 AJM       0.446000
     38 H2           1.3560     2.2750    -0.9790 h1         1 AJM       0.072700
     39 H121         1.3020     0.0830    -2.7050 hc         1 AJM       0.050200
     40 H122         2.7340     1.0190    -2.3870 hc         1 AJM       0.050200
     41 H1          -0.5060     0.6620    -1.8640 h1         1 AJM       0.031700
     42 H181        -2.0300     3.2250    -1.5460 h1         1 AJM       0.036033
     43 H182        -2.0650     3.5990     0.2020 h1         1 AJM       0.036033
     44 H183        -0.5170     3.5510    -0.6640 h1         1 AJM       0.036033
@<TRIPOS>BOND
     1     1     2 1   
     2     1    23 1   
     3     2     3 1   
     4     2    11 1   
     5     2    24 1   
     6     3     4 1   
     7     3     5 1   
     8     3    20 1   
     9     4    14 1   
    10     4    25 1   
    11     4    26 1   
    12     5     6 ar  
    13     5     9 ar  
    14     6     7 ar  
    15     6    27 1   
    16     7     8 ar  
    17     7    28 1   
    18     8    10 ar  
    19     8    29 1   
    20     9    10 ar  
    21     9    21 1   
    22    10    30 1   
    23    11    12 1   
    24    11    14 1   
    25    11    31 1   
    26    12    13 1   
    27    12    19 1   
    28    12    32 1   
    29    13    16 1   
    30    13    33 1   
    31    13    34 1   
    32    14    15 1   
    33    14    35 1   
    34    15    16 1   
    35    15    18 1   
    36    16    17 1   
    37    16    36 1   
    38    17    37 1   
    39    18    19 1   
    40    18    20 1   
    41    18    38 1   
    42    19    39 1   
    43    19    40 1   
    44    20    21 1   
    45    20    41 1   
    46    21    22 1   
    47    22    42 1   
    48    22    43 1   
    49    22    44 1   
@<TRIPOS>SUBSTRUCTURE
     1 AJM         1 TEMP              0 ****  ****    0 ROOT
