@<TRIPOS>MOLECULE
AJN
   50    54     1     0     0
SMALL
bcc


@<TRIPOS>ATOM
      1 O1          -3.8240     3.0520     0.9020 o          1 AJN      -0.557000
      2 C13         -3.1280     2.3080     0.2440 c          1 AJN       0.670300
      3 O2          -2.2980     2.7500    -0.6970 os         1 AJN      -0.421900
      4 C14         -2.2150     4.1590    -0.8970 c3         1 AJN       0.128700
      5 C11         -3.1150     0.8430     0.3450 ce         1 AJN      -0.312400
      6 C12         -4.1970     0.2930     0.9290 c2         1 AJN       0.134100
      7 O           -4.4790    -1.0000     1.0090 os         1 AJN      -0.305900
      8 C1          -3.6620    -1.9040     0.2410 c6         1 AJN       0.147100
      9 C           -4.2260    -2.0330    -1.1610 c3         1 AJN      -0.118100
     10 C10         -2.0340    -0.0320    -0.2320 c6         1 AJN       0.016500
     11 C2          -2.2160    -1.4470     0.3220 c6         1 AJN      -0.108700
     12 C9          -0.5960     0.3820     0.0920 c6         1 AJN      -0.065400
     13 C8           0.3750    -0.6260    -0.5270 c6         1 AJN       0.243700
     14 N            0.1220    -1.9720    -0.0250 n3         1 AJN      -0.723600
     15 C3          -1.2280    -2.3980    -0.3350 c6         1 AJN       0.184800
     16 C7           1.8030    -0.2940    -0.2520 cc         1 AJN      -0.062300
     17 N1           2.3430     0.9620    -0.3260 na         1 AJN      -0.168400
     18 C15          3.6760     0.8930    -0.0320 ca         1 AJN      -0.042200
     19 C20          3.9840    -0.4610     0.2390 ca         1 AJN      -0.087800
     20 C6           2.7670    -1.1960     0.0880 cd         1 AJN      -0.127400
     21 C5           2.4670    -2.6510     0.2080 c6         1 AJN       0.003800
     22 C4           1.1260    -2.9290    -0.4640 c6         1 AJN       0.173800
     23 C19          5.2990    -0.8050     0.5680 ca         1 AJN      -0.079000
     24 C18          6.2600     0.1880     0.6180 ca         1 AJN      -0.160000
     25 C17          5.9320     1.5260     0.3470 ca         1 AJN      -0.110000
     26 C16          4.6400     1.8970     0.0190 ca         1 AJN      -0.148000
     27 H1          -1.4860     4.3040    -1.6900 h1         1 AJN       0.046367
     28 H2          -3.1720     4.5770    -1.2060 h1         1 AJN       0.046367
     29 H3          -1.8740     4.6730     0.0020 h1         1 AJN       0.046367
     30 H4          -4.9680     0.9010     1.3890 h4         1 AJN       0.184000
     31 H5          -3.7650    -2.8620     0.7540 h1         1 AJN       0.078700
     32 H6          -4.1380    -1.1120    -1.7390 hc         1 AJN       0.049367
     33 H7          -3.6980    -2.8190    -1.7020 hc         1 AJN       0.049367
     34 H8          -5.2780    -2.3140    -1.1260 hc         1 AJN       0.049367
     35 H9          -2.1240    -0.0620    -1.3270 hc         1 AJN       0.057700
     36 H10         -1.9550    -1.4210     1.3880 hc         1 AJN       0.083700
     37 H11         -0.3780     1.3710    -0.3080 hc         1 AJN       0.059700
     38 H12         -0.4500     0.4220     1.1750 hc         1 AJN       0.059700
     39 H13          0.2190    -0.5920    -1.6250 h1         1 AJN       0.031700
     40 H15         -1.3690    -3.4100     0.0540 h1         1 AJN       0.034200
     41 H16         -1.4050    -2.4450    -1.4230 h1         1 AJN       0.034200
     42 H17          1.8500     1.8010    -0.5800 hn         1 AJN       0.299700
     43 H18          3.2460    -3.2560    -0.2650 hc         1 AJN       0.052700
     44 H19          2.4270    -2.9610     1.2570 hc         1 AJN       0.052700
     45 H20          0.7820    -3.9300    -0.1990 h1         1 AJN       0.033200
     46 H21          1.2500    -2.9110    -1.5590 h1         1 AJN       0.033200
     47 H22          5.5620    -1.8350     0.7790 ha         1 AJN       0.130000
     48 H23          7.2810    -0.0670     0.8700 ha         1 AJN       0.128000
     49 H24          6.7050     2.2820     0.3940 ha         1 AJN       0.127000
     50 H25          4.3900     2.9290    -0.1900 ha         1 AJN       0.129000
@<TRIPOS>BOND
     1     1     2 2   
     2     2     3 1   
     3     2     5 1   
     4     3     4 1   
     5     4    27 1   
     6     4    28 1   
     7     4    29 1   
     8     5     6 2   
     9     5    10 1   
    10     6     7 1   
    11     6    30 1   
    12     7     8 1   
    13     8     9 1   
    14     8    11 1   
    15     8    31 1   
    16     9    32 1   
    17     9    33 1   
    18     9    34 1   
    19    10    11 1   
    20    10    12 1   
    21    10    35 1   
    22    11    15 1   
    23    11    36 1   
    24    12    13 1   
    25    12    37 1   
    26    12    38 1   
    27    13    14 1   
    28    13    16 1   
    29    13    39 1   
    30    14    15 1   
    31    14    22 1   
    32    15    40 1   
    33    15    41 1   
    34    16    17 1   
    35    16    20 2   
    36    17    18 1   
    37    17    42 1   
    38    18    19 ar  
    39    18    26 ar  
    40    19    20 1   
    41    19    23 ar  
    42    20    21 1   
    43    21    22 1   
    44    21    43 1   
    45    21    44 1   
    46    22    45 1   
    47    22    46 1   
    48    23    24 ar  
    49    23    47 1   
    50    24    25 ar  
    51    24    48 1   
    52    25    26 ar  
    53    25    49 1   
    54    26    50 1   
@<TRIPOS>SUBSTRUCTURE
     1 AJN         1 TEMP              0 ****  ****    0 ROOT
