@<TRIPOS>MOLECULE
AJN
   50    54     1     0     0
SMALL
No Charge or Current Charge


@<TRIPOS>ATOM
      1 O1          -4.0080     3.1100     0.7230 o          1 AJN      -0.508000
      2 C13         -3.1890     2.3590     0.2090 c          1 AJN       0.621300
      3 O2          -2.2830     2.7660    -0.7320 os         1 AJN      -0.445100
      4 C14         -2.2170     4.1670    -1.0540 c3         1 AJN       0.151900
      5 C11         -3.2310     0.8660     0.3790 ce         1 AJN      -0.312400
      6 C12         -4.3350     0.3120     0.9480 c2         1 AJN       0.084100
      7 O           -4.5500    -1.0440     1.0690 os         1 AJN      -0.329100
      8 C1          -3.7360    -1.9560     0.3020 c6         1 AJN       0.170300
      9 C           -4.3350    -2.0390    -1.1300 c3         1 AJN      -0.118100
     10 C10         -2.0980    -0.0440    -0.1760 c6         1 AJN       0.016500
     11 C2          -2.2650    -1.4880     0.3770 c6         1 AJN      -0.108700
     12 C9          -0.6330     0.3900     0.1470 c6         1 AJN      -0.065400
     13 C8           0.3720    -0.6160    -0.4810 c6         1 AJN       0.243700
     14 N            0.1250    -2.0070     0.0180 n3         1 AJN      -0.723600
     15 C3          -1.2560    -2.4570    -0.2860 c6         1 AJN       0.184800
     16 C7           1.8130    -0.2300    -0.2060 cc         1 AJN      -0.062300
     17 N1           2.4150     1.0460    -0.1890 na         1 AJN      -0.218700
     18 C15          3.7710     0.9170     0.0620 ca         1 AJN      -0.042200
     19 C20          4.0820    -0.4090     0.1990 ca         1 AJN      -0.087800
     20 C6           2.8440    -1.1290     0.0220 cd         1 AJN      -0.127400
     21 C5           2.5710    -2.6180     0.0680 c6         1 AJN       0.003800
     22 C4           1.1560    -2.9600    -0.4840 c6         1 AJN       0.173800
     23 C19          5.3860    -0.8490     0.4560 ca         1 AJN      -0.061000
     24 C18          6.3940     0.1330     0.5750 ca         1 AJN      -0.142000
     25 C17          6.0770     1.5080     0.4340 ca         1 AJN      -0.092000
     26 C16          4.7490     1.9130     0.1730 ca         1 AJN      -0.130000
     27 H1          -1.4450     4.3480    -1.8120 h1         1 AJN       0.046367
     28 H2          -3.1760     4.5230    -1.4530 h1         1 AJN       0.046367
     29 H3          -1.9670     4.7610    -0.1650 h1         1 AJN       0.046367
     30 H4          -5.1610     0.9130     1.3360 h4         1 AJN       0.234000
     31 H5          -3.8210    -2.9520     0.7610 h1         1 AJN       0.078700
     32 H6          -4.3340    -1.0680    -1.6380 hc         1 AJN       0.049367
     33 H7          -3.7760    -2.7450    -1.7550 hc         1 AJN       0.049367
     34 H8          -5.3730    -2.3900    -1.0940 hc         1 AJN       0.049367
     35 H9          -2.2040    -0.0670    -1.2700 hc         1 AJN       0.057700
     36 H10         -2.0180    -1.4680     1.4480 hc         1 AJN       0.083700
     37 H11         -0.4070     1.3850    -0.2480 hc         1 AJN       0.059700
     38 H12         -0.4810     0.4430     1.2330 hc         1 AJN       0.059700
     39 H13          0.2220    -0.5980    -1.5720 h1         1 AJN       0.031700
     40 H15         -1.4200    -3.4710     0.1080 h1         1 AJN       0.034200
     41 H16         -1.4240    -2.4920    -1.3730 h1         1 AJN       0.034200
     42 H17          1.9340     1.9250    -0.3440 hn         1 AJN       0.350000
     43 H18          3.3310    -3.1730    -0.4980 hc         1 AJN       0.052700
     44 H19          2.6430    -2.9680     1.1070 hc         1 AJN       0.052700
     45 H20          0.9070    -3.9910    -0.1920 h1         1 AJN       0.033200
     46 H21          1.1850    -2.9340    -1.5830 h1         1 AJN       0.033200
     47 H22          5.6140    -1.9070     0.5620 ha         1 AJN       0.112000
     48 H23          7.4200    -0.1670     0.7750 ha         1 AJN       0.110000
     49 H24          6.8620     2.2560     0.5270 ha         1 AJN       0.109000
     50 H25          4.4960     2.9650     0.0630 ha         1 AJN       0.111000
@<TRIPOS>BOND
     1     1     2 2   
     2     2     3 1   
     3     2     5 1   
     4     3     4 1   
     5     4    27 1   
     6     4    28 1   
     7     4    29 1   
     8     5     6 2   
     9     5    10 1   
    10     6     7 1   
    11     6    30 1   
    12     7     8 1   
    13     8     9 1   
    14     8    11 1   
    15     8    31 1   
    16     9    32 1   
    17     9    33 1   
    18     9    34 1   
    19    10    11 1   
    20    10    12 1   
    21    10    35 1   
    22    11    15 1   
    23    11    36 1   
    24    12    13 1   
    25    12    37 1   
    26    12    38 1   
    27    13    14 1   
    28    13    16 1   
    29    13    39 1   
    30    14    15 1   
    31    14    22 1   
    32    15    40 1   
    33    15    41 1   
    34    16    17 1   
    35    16    20 2   
    36    17    18 1   
    37    17    42 1   
    38    18    19 ar  
    39    18    26 ar  
    40    19    20 1   
    41    19    23 ar  
    42    20    21 1   
    43    21    22 1   
    44    21    43 1   
    45    21    44 1   
    46    22    45 1   
    47    22    46 1   
    48    23    24 ar  
    49    23    47 1   
    50    24    25 ar  
    51    24    48 1   
    52    25    26 ar  
    53    25    49 1   
    54    26    50 1   
@<TRIPOS>SUBSTRUCTURE
     1 AJN         1 TEMP              0 ****  ****    0 ROOT
