@<TRIPOS>MOLECULE
AJO
   30    30     1     0     0
SMALL
abcg2


@<TRIPOS>ATOM
      1 N12        -13.6320     6.7100   -29.1710 n3         1 AJO      -0.686600
      2 C13        -14.8370     6.9090   -29.9480 c3         1 AJO       0.229900
      3 C01        -12.0480     5.2690   -24.7370 ca         1 AJO       0.487900
      4 C02        -10.8530     4.5900   -24.9800 ca         1 AJO      -0.179000
      5 C03        -10.1850     4.0800   -23.8810 ca         1 AJO      -0.050000
      6 C04        -10.7000     4.2520   -22.6050 ca         1 AJO      -0.193000
      7 C05        -11.8940     4.9490   -22.4660 ca         1 AJO       0.391300
      8 C08        -12.7410     5.7580   -27.0800 c          1 AJO       0.612100
      9 C09        -13.9210     6.4090   -27.7910 c3         1 AJO       0.078800
     10 C11        -12.5190     5.1810   -21.1240 c3         1 AJO      -0.144400
     11 C14        -15.5630     5.6530   -30.1360 c1         1 AJO       0.295900
     12 C16        -12.7510     7.8570   -29.3100 c3         1 AJO       0.147100
     13 N06        -12.5420     5.4410   -23.5180 nb         1 AJO      -0.750000
     14 N07        -12.8440     5.8420   -25.7260 ns         1 AJO      -0.330900
     15 N15        -16.1430     4.6730   -30.2940 n1         1 AJO      -0.447000
     16 O10        -11.8390     5.1990   -27.6670 o          1 AJO      -0.547100
     17 H2         -15.5340     7.6440   -29.5180 h1         1 AJO       0.063700
     18 H3         -14.5690     7.2740   -30.9420 h1         1 AJO       0.063700
     19 H4         -10.4590     4.4660   -25.9740 ha         1 AJO       0.156000
     20 H5          -9.2550     3.5460   -24.0240 ha         1 AJO       0.121000
     21 H6         -10.1900     3.8570   -21.7370 ha         1 AJO       0.125000
     22 H7         -14.2620     7.2930   -27.2280 h1         1 AJO       0.056700
     23 H8         -14.7410     5.6840   -27.7350 h1         1 AJO       0.056700
     24 H9         -13.5180     4.7460   -21.0840 hc         1 AJO       0.051033
     25 H10        -11.9250     4.7420   -20.3250 hc         1 AJO       0.051033
     26 H11        -12.6240     6.2480   -20.9260 hc         1 AJO       0.051033
     27 H12        -11.8190     7.6800   -28.7760 h1         1 AJO       0.042367
     28 H13        -12.5020     8.0070   -30.3600 h1         1 AJO       0.042367
     29 H14        -13.1940     8.7850   -28.9250 h1         1 AJO       0.042367
     30 H15        -13.6460     6.3290   -25.3500 hn         1 AJO       0.163000
@<TRIPOS>BOND
     1     1     2 1   
     2     1     9 1   
     3     1    12 1   
     4     2    11 1   
     5     2    17 1   
     6     2    18 1   
     7     3     4 ar  
     8     3    13 ar  
     9     3    14 1   
    10     4     5 ar  
    11     4    19 1   
    12     5     6 ar  
    13     5    20 1   
    14     6     7 ar  
    15     6    21 1   
    16     7    10 1   
    17     7    13 ar  
    18     8     9 1   
    19     8    14 1   
    20     8    16 2   
    21     9    22 1   
    22     9    23 1   
    23    10    24 1   
    24    10    25 1   
    25    10    26 1   
    26    11    15 3   
    27    12    27 1   
    28    12    28 1   
    29    12    29 1   
    30    14    30 1   
@<TRIPOS>SUBSTRUCTURE
     1 AJO         1 TEMP              0 ****  ****    0 ROOT
