@<TRIPOS>MOLECULE
AJO
   30    30     1     0     0
SMALL
No Charge or Current Charge


@<TRIPOS>ATOM
      1 N12        -13.7080     6.7410   -28.9930 n3         1 AJO      -0.686600
      2 C13        -14.8180     7.1850   -29.8990 c3         1 AJO       0.229900
      3 C01        -12.0130     5.0560   -24.9090 ca         1 AJO       0.487900
      4 C02        -10.8140     4.3280   -25.0330 ca         1 AJO      -0.179000
      5 C03        -10.0460     4.0890   -23.8820 ca         1 AJO      -0.050000
      6 C04        -10.5150     4.5960   -22.6610 ca         1 AJO      -0.193000
      7 C05        -11.7210     5.3200   -22.6320 ca         1 AJO       0.391300
      8 C08        -12.9540     4.9360   -27.2520 c          1 AJO       0.612100
      9 C09        -14.0830     5.5900   -28.0970 c3         1 AJO       0.078800
     10 C11        -12.2660     5.8850   -21.3350 c3         1 AJO      -0.144400
     11 C14        -15.2670     6.1960   -30.9030 c1         1 AJO       0.295900
     12 C16        -13.1030     7.8770   -28.2560 c3         1 AJO       0.147100
     13 N06        -12.4610     5.5480   -23.7390 nb         1 AJO      -0.750000
     14 N07        -12.8880     5.3820   -25.9500 ns         1 AJO      -0.330900
     15 N15        -15.6440     5.4110   -31.6800 n1         1 AJO      -0.447000
     16 O10        -12.1960     4.0910   -27.7150 o          1 AJO      -0.547100
     17 H2         -15.6930     7.4820   -29.3050 h1         1 AJO       0.063700
     18 H3         -14.5030     8.0740   -30.4600 h1         1 AJO       0.063700
     19 H4         -10.4710     3.9580   -25.9920 ha         1 AJO       0.156000
     20 H5          -9.1140     3.5300   -23.9360 ha         1 AJO       0.121000
     21 H6          -9.9520     4.4330   -21.7460 ha         1 AJO       0.125000
     22 H7         -14.8700     5.9050   -27.3990 h1         1 AJO       0.056700
     23 H8         -14.5090     4.7720   -28.6920 h1         1 AJO       0.056700
     24 H9         -12.6910     6.8850   -21.4840 hc         1 AJO       0.051033
     25 H10        -13.0540     5.2390   -20.9320 hc         1 AJO       0.051033
     26 H11        -11.4810     5.9700   -20.5760 hc         1 AJO       0.051033
     27 H12        -12.2110     7.5570   -27.7010 h1         1 AJO       0.042367
     28 H13        -12.7930     8.6700   -28.9490 h1         1 AJO       0.042367
     29 H14        -13.8180     8.3070   -27.5410 h1         1 AJO       0.042367
     30 H15        -13.5910     6.0590   -25.6890 hn         1 AJO       0.163000
@<TRIPOS>BOND
     1     1     2 1   
     2     1     9 1   
     3     1    12 1   
     4     2    11 1   
     5     2    17 1   
     6     2    18 1   
     7     3     4 ar  
     8     3    13 ar  
     9     3    14 1   
    10     4     5 ar  
    11     4    19 1   
    12     5     6 ar  
    13     5    20 1   
    14     6     7 ar  
    15     6    21 1   
    16     7    10 1   
    17     7    13 ar  
    18     8     9 1   
    19     8    14 1   
    20     8    16 2   
    21     9    22 1   
    22     9    23 1   
    23    10    24 1   
    24    10    25 1   
    25    10    26 1   
    26    11    15 3   
    27    12    27 1   
    28    12    28 1   
    29    12    29 1   
    30    14    30 1   
@<TRIPOS>SUBSTRUCTURE
     1 AJO         1 TEMP              0 ****  ****    0 ROOT
