@<TRIPOS>MOLECULE
AJP
  177   187     1     0     0
SMALL
No Charge or Current Charge


@<TRIPOS>ATOM
      1 C01         97.4900    98.6770   114.1550 c3         1 AJP      -0.084100
      2 C02         97.9770    99.5130   115.3680 c6         1 AJP      -0.098700
      3 C03         96.9930    99.4220   116.5530 c6         1 AJP      -0.069400
      4 C04         97.5350   100.2520   117.7310 c6         1 AJP      -0.082400
      5 C05         97.8060   101.7280   117.3330 c5         1 AJP       0.386000
      6 C06         98.5590   102.5630   118.4380 c5         1 AJP      -0.065700
      7 C07         98.0090   104.0190   118.2090 c5         1 AJP      -0.083700
      8 C08         96.9440   103.8590   117.0850 c5         1 AJP       0.169300
      9 O09         96.5810   102.4610   117.1390 os         1 AJP      -0.444000
     10 C10         95.7530   104.8400   117.4640 c5         1 AJP       0.174300
     11 C11         96.3950   105.6500   118.6450 c5         1 AJP      -0.106700
     12 C12         97.1930   104.5680   119.4470 c5         1 AJP      -0.026000
     13 C13         98.0790   105.2900   120.5010 c6         1 AJP      -0.067400
     14 C14         97.2350   106.2100   121.4300 c6         1 AJP      -0.069400
     15 C15         96.3990   107.2710   120.6280 c6         1 AJP      -0.046700
     16 C16         95.5040   106.5770   119.5290 c6         1 AJP      -0.045700
     17 C17         94.7690   107.6390   118.6650 c6         1 AJP      -0.073400
     18 C18         93.9550   108.6250   119.5320 c6         1 AJP      -0.068400
     19 C19         94.8660   109.3100   120.5840 c6         1 AJP      -0.054700
     20 C20         95.5630   108.2670   121.5390 c6         1 AJP      -0.031000
     21 C21         96.5220   109.0760   122.4830 c6         1 AJP      -0.075400
     22 C22         95.8090   110.2040   123.2790 c6         1 AJP       0.187300
     23 C23         95.0510   111.1810   122.3230 c6         1 AJP       0.140300
     24 C24         94.1050   110.4240   121.3540 c6         1 AJP      -0.094400
     25 O25         94.3090   112.1500   123.0910 os         1 AJP      -0.450000
     26 C26         94.0160   113.3960   122.4340 c6         1 AJP       0.382300
     27 C27         92.9240   114.1580   123.2670 c6         1 AJP       0.108300
     28 C28         92.7780   115.6280   122.7750 c6         1 AJP       0.160300
     29 C29         94.1720   116.3230   122.8120 c6         1 AJP       0.153300
     30 C30         95.1170   115.5050   121.8760 c6         1 AJP       0.139300
     31 O31         95.2460   114.1540   122.3860 os         1 AJP      -0.471000
     32 C32         96.5520   116.0990   121.7360 c3         1 AJP       0.172600
     33 O33         96.5630   117.3680   121.0540 oh         1 AJP      -0.731000
     34 O34         94.7100   116.3560   124.1670 os         1 AJP      -0.436000
     35 C35         95.0430   117.6240   124.7630 c6         1 AJP       0.393300
     36 C36         95.8180   117.3420   126.1080 c6         1 AJP       0.150300
     37 C37         96.6660   118.5530   126.5700 c6         1 AJP       0.130300
     38 C38         97.4530   119.2500   125.4340 c6         1 AJP       0.137300
     39 C39         96.4780   119.5560   124.2650 c6         1 AJP       0.188300
     40 O40         95.8880   118.3150   123.8170 os         1 AJP      -0.507000
     41 C41         97.1890   120.2040   123.0310 c3         1 AJP       0.170600
     42 O42         98.0370   119.2860   122.3060 oh         1 AJP      -0.714000
     43 O43         98.1080   120.4330   125.9440 oh         1 AJP      -0.735000
     44 O44         97.5780   118.1270   127.6050 os         1 AJP      -0.444000
     45 C45         97.5600   118.8850   128.8130 c6         1 AJP       0.361300
     46 C46         98.1900   118.0210   129.9460 c6         1 AJP       0.125300
     47 C47         98.2220   118.8660   131.2490 c6         1 AJP       0.136300
     48 C48         98.9960   120.1960   130.9950 c6         1 AJP       0.141300
     49 C49         98.3670   120.9450   129.7800 c6         1 AJP       0.169600
     50 O50         98.3330   120.0840   128.6120 os         1 AJP      -0.500000
     51 O51         98.9870   121.0070   132.1840 oh         1 AJP      -0.715000
     52 O52         98.8250   118.1140   132.3170 oh         1 AJP      -0.665000
     53 O53         97.4720   116.7770   130.1390 oh         1 AJP      -0.742000
     54 O54         94.9500   116.9830   127.2370 os         1 AJP      -0.439000
     55 C55         94.9780   115.6160   127.7290 c6         1 AJP       0.423300
     56 C56         94.1970   114.6510   126.7870 c6         1 AJP       0.101300
     57 C57         94.3480   113.1680   127.1990 c6         1 AJP       0.141300
     58 C58         95.8590   112.8170   127.3860 c6         1 AJP       0.139300
     59 C59         96.4940   113.8320   128.3940 c6         1 AJP       0.137300
     60 O60         96.3510   115.1930   127.9040 os         1 AJP      -0.479000
     61 C61         98.0210   113.5540   128.5960 c3         1 AJP       0.164600
     62 O62         98.7810   113.7080   127.3770 oh         1 AJP      -0.717000
     63 O63         96.5650   112.8650   126.1300 oh         1 AJP      -0.702000
     64 O64         93.6970   112.3770   126.1730 os         1 AJP      -0.413000
     65 C65         93.2100   111.0770   126.5390 c6         1 AJP       0.400300
     66 C66         92.3760   110.4740   125.3560 c6         1 AJP       0.148300
     67 C67         91.8560   109.0760   125.7870 c6         1 AJP       0.134300
     68 C68         93.0610   108.1740   126.1820 c6         1 AJP       0.115300
     69 C69         93.9040   108.8840   127.2880 c6         1 AJP       0.138300
     70 O70         94.3130   110.1940   126.8320 os         1 AJP      -0.482000
     71 C71         95.1880   108.0790   127.6580 c3         1 AJP       0.158600
     72 O72         94.8810   106.7340   128.0880 oh         1 AJP      -0.740000
     73 O73         92.6160   106.8840   126.6360 oh         1 AJP      -0.727000
     74 O74         91.0960   108.4650   124.7320 oh         1 AJP      -0.663000
     75 O75         91.2710   111.3090   124.9280 oh         1 AJP      -0.728000
     76 O76         92.7900   114.9910   126.6780 oh         1 AJP      -0.712000
     77 O77         91.7970   116.3050   123.5800 oh         1 AJP      -0.711000
     78 O78         91.6300   113.4960   123.2880 oh         1 AJP      -0.738000
     79 O79         96.7780   110.9030   124.0780 oh         1 AJP      -0.737000
     80 C80         94.5190   107.4830   122.4210 c3         1 AJP      -0.082100
     81 C81         96.2850   103.5290   120.2130 c3         1 AJP      -0.082100
     82 O82         94.5060   104.2090   117.8020 oh         1 AJP      -0.697000
     83 C83        100.1060   102.4600   118.4390 c3         1 AJP      -0.072100
     84 O84         98.5790   101.8310   116.1010 os         1 AJP      -0.476000
     85 C85         98.2150   100.9940   114.9760 c6         1 AJP       0.166600
     86 H1          97.3640    97.6220   114.4260 hc         1 AJP       0.034033
     87 H2          96.5260    99.0420   113.7780 hc         1 AJP       0.034033
     88 H3          98.2100    98.7220   113.3290 hc         1 AJP       0.034033
     89 H4          98.9400    99.0800   115.6730 hc         1 AJP       0.052700
     90 H5          96.0020    99.7930   116.2560 hc         1 AJP       0.048200
     91 H6          96.8620    98.3750   116.8620 hc         1 AJP       0.048200
     92 H7          96.8210   100.2230   118.5660 hc         1 AJP       0.056700
     93 H8          98.4630    99.8000   118.1050 hc         1 AJP       0.056700
     94 H9          98.2790   102.1750   119.4180 hc         1 AJP       0.068700
     95 H10         98.7970   104.7120   117.8900 hc         1 AJP       0.064700
     96 H11         97.3630   104.0900   116.0960 h1         1 AJP       0.050700
     97 H12         95.5750   105.5250   116.6230 h1         1 AJP       0.040700
     98 H13         97.1060   106.3550   118.1950 hc         1 AJP       0.050700
     99 H14         98.6380   104.5570   121.0990 hc         1 AJP       0.040700
    100 H15         98.8370   105.9030   119.9930 hc         1 AJP       0.040700
    101 H16         96.5800   105.5960   122.0600 hc         1 AJP       0.040700
    102 H17         97.9290   106.7100   122.1160 hc         1 AJP       0.040700
    103 H18         97.1350   107.8850   120.0880 hc         1 AJP       0.044700
    104 H19         94.7420   105.9600   120.0180 hc         1 AJP       0.052700
    105 H20         95.4980   108.2020   118.0650 hc         1 AJP       0.038700
    106 H21         94.0950   107.1500   117.9480 hc         1 AJP       0.038700
    107 H22         93.5030   109.3840   118.8790 hc         1 AJP       0.042700
    108 H23         93.1190   108.1040   120.0180 hc         1 AJP       0.042700
    109 H24         95.6600   109.8200   120.0190 hc         1 AJP       0.046700
    110 H25         96.9980   108.4030   123.2080 hc         1 AJP       0.052700
    111 H26         97.3380   109.5150   121.8930 hc         1 AJP       0.052700
    112 H27         95.0740   109.7380   123.9480 h1         1 AJP       0.032700
    113 H28         95.8100   111.7080   121.7250 h1         1 AJP       0.060700
    114 H29         93.6830   111.1340   120.6300 hc         1 AJP       0.048700
    115 H30         93.2490   110.0110   121.9030 hc         1 AJP       0.048700
    116 H31         93.6450   113.2200   121.4140 h2         1 AJP       0.025700
    117 H32         93.3160   114.1960   124.2860 h1         1 AJP       0.078700
    118 H33         92.4350   115.6060   121.7300 h1         1 AJP       0.039700
    119 H34         94.0660   117.3450   122.4200 h1         1 AJP       0.075700
    120 H35         94.6780   115.4530   120.8690 h1         1 AJP       0.042700
    121 H36         97.1640   115.3740   121.1820 h1         1 AJP       0.059200
    122 H37         96.9940   116.1930   122.7370 h1         1 AJP       0.059200
    123 H38         97.0060   118.0210   121.6710 ho         1 AJP       0.530000
    124 H39         94.1340   118.2130   124.9560 h2         1 AJP       0.054700
    125 H40         96.5180   116.5200   125.8980 h1         1 AJP       0.103700
    126 H41         95.9620   119.2900   126.9850 h1         1 AJP       0.058700
    127 H42         98.2070   118.5380   125.0620 h1         1 AJP       0.079700
    128 H43         95.6820   120.2330   124.6080 h1         1 AJP       0.048700
    129 H44         96.4090   120.5930   122.3620 h1         1 AJP       0.036200
    130 H45         97.7690   121.0700   123.3780 h1         1 AJP       0.036200
    131 H46         98.7380   119.8300   121.8730 ho         1 AJP       0.507000
    132 H47         98.2900   120.2470   126.9080 ho         1 AJP       0.538000
    133 H48         96.5240   119.1400   129.0840 h2         1 AJP       0.043700
    134 H49         99.2280   117.8040   129.6500 h1         1 AJP       0.064700
    135 H50         97.1830   119.1150   131.5150 h1         1 AJP       0.051700
    136 H51        100.0340   119.9430   130.7290 h1         1 AJP       0.057700
    137 H52         98.9650   121.8370   129.5450 h1         1 AJP       0.065200
    138 H53         97.3450   121.2730   130.0210 h1         1 AJP       0.065200
    139 H54         99.1270   120.3690   132.9260 ho         1 AJP       0.524000
    140 H55         98.5050   117.1910   132.1800 ho         1 AJP       0.463000
    141 H56         97.2500   116.4430   129.2290 ho         1 AJP       0.543000
    142 H57         94.4780   115.5960   128.7100 h2         1 AJP       0.070700
    143 H58         94.6880   114.7210   125.8110 h1         1 AJP       0.106700
    144 H59         93.8240   113.0150   128.1550 h1         1 AJP       0.043700
    145 H60         95.9440   111.8120   127.8230 h1         1 AJP       0.044700
    146 H61         95.9930   113.7490   129.3700 h1         1 AJP       0.043700
    147 H62         98.1380   112.5360   128.9910 h1         1 AJP       0.037200
    148 H63         98.3940   114.2440   129.3650 h1         1 AJP       0.037200
    149 H64         99.7320   113.7600   127.6360 ho         1 AJP       0.514000
    150 H65         97.4600   113.2340   126.3870 ho         1 AJP       0.537000
    151 H66         92.5660   111.1710   127.4270 h2         1 AJP       0.028700
    152 H67         93.0650   110.3270   124.5140 h1         1 AJP       0.087700
    153 H68         91.2190   109.2030   126.6760 h1         1 AJP       0.048700
    154 H69         93.7090   108.0500   125.3020 h1         1 AJP       0.055700
    155 H70         93.2970   109.0020   128.1980 h1         1 AJP       0.056700
    156 H71         95.8480   108.0560   126.7800 h1         1 AJP       0.044700
    157 H72         95.7140   108.6240   128.4540 h1         1 AJP       0.044700
    158 H73         95.7170   106.3500   128.4530 ho         1 AJP       0.521000
    159 H74         93.3640   106.5700   127.2240 ho         1 AJP       0.537000
    160 H75         91.0940   107.5030   124.9500 ho         1 AJP       0.469000
    161 H76         90.5900   110.6610   124.6160 ho         1 AJP       0.530000
    162 H77         92.3600   114.2090   126.2610 ho         1 AJP       0.521000
    163 H78         91.1370   115.6000   123.7830 ho         1 AJP       0.521000
    164 H79         91.7120   112.6820   123.8640 ho         1 AJP       0.533000
    165 H80         96.2900   111.5810   124.6190 ho         1 AJP       0.547000
    166 H81         93.8580   108.1490   122.9820 hc         1 AJP       0.031700
    167 H82         93.8650   106.8330   121.8330 hc         1 AJP       0.031700
    168 H83         95.0160   106.8500   123.1650 hc         1 AJP       0.031700
    169 H84         95.4820   104.0110   120.7800 hc         1 AJP       0.037700
    170 H85         95.8080   102.8010   119.5510 hc         1 AJP       0.037700
    171 H86         96.8640   102.9530   120.9440 hc         1 AJP       0.037700
    172 H87         93.9690   104.8890   118.2610 ho         1 AJP       0.497000
    173 H88        100.5310   103.0250   119.2770 hc         1 AJP       0.037033
    174 H89        100.4320   101.4180   118.5400 hc         1 AJP       0.037033
    175 H90        100.5400   102.8610   117.5160 hc         1 AJP       0.037033
    176 H91         99.0050   101.0620   114.2140 h1         1 AJP       0.046700
    177 H92         97.2940   101.4010   114.5350 h1         1 AJP       0.046700
@<TRIPOS>BOND
     1     1     2 1   
     2     1    86 1   
     3     1    87 1   
     4     1    88 1   
     5     2     3 1   
     6     2    85 1   
     7     2    89 1   
     8     3     4 1   
     9     3    90 1   
    10     3    91 1   
    11     4     5 1   
    12     4    92 1   
    13     4    93 1   
    14     5     6 1   
    15     5     9 1   
    16     5    84 1   
    17     6     7 1   
    18     6    83 1   
    19     6    94 1   
    20     7     8 1   
    21     7    12 1   
    22     7    95 1   
    23     8     9 1   
    24     8    10 1   
    25     8    96 1   
    26    10    11 1   
    27    10    82 1   
    28    10    97 1   
    29    11    12 1   
    30    11    16 1   
    31    11    98 1   
    32    12    13 1   
    33    12    81 1   
    34    13    14 1   
    35    13    99 1   
    36    13   100 1   
    37    14    15 1   
    38    14   101 1   
    39    14   102 1   
    40    15    16 1   
    41    15    20 1   
    42    15   103 1   
    43    16    17 1   
    44    16   104 1   
    45    17    18 1   
    46    17   105 1   
    47    17   106 1   
    48    18    19 1   
    49    18   107 1   
    50    18   108 1   
    51    19    20 1   
    52    19    24 1   
    53    19   109 1   
    54    20    21 1   
    55    20    80 1   
    56    21    22 1   
    57    21   110 1   
    58    21   111 1   
    59    22    23 1   
    60    22    79 1   
    61    22   112 1   
    62    23    24 1   
    63    23    25 1   
    64    23   113 1   
    65    24   114 1   
    66    24   115 1   
    67    25    26 1   
    68    26    27 1   
    69    26    31 1   
    70    26   116 1   
    71    27    28 1   
    72    27    78 1   
    73    27   117 1   
    74    28    29 1   
    75    28    77 1   
    76    28   118 1   
    77    29    30 1   
    78    29    34 1   
    79    29   119 1   
    80    30    31 1   
    81    30    32 1   
    82    30   120 1   
    83    32    33 1   
    84    32   121 1   
    85    32   122 1   
    86    33   123 1   
    87    34    35 1   
    88    35    36 1   
    89    35    40 1   
    90    35   124 1   
    91    36    37 1   
    92    36    54 1   
    93    36   125 1   
    94    37    38 1   
    95    37    44 1   
    96    37   126 1   
    97    38    39 1   
    98    38    43 1   
    99    38   127 1   
   100    39    40 1   
   101    39    41 1   
   102    39   128 1   
   103    41    42 1   
   104    41   129 1   
   105    41   130 1   
   106    42   131 1   
   107    43   132 1   
   108    44    45 1   
   109    45    46 1   
   110    45    50 1   
   111    45   133 1   
   112    46    47 1   
   113    46    53 1   
   114    46   134 1   
   115    47    48 1   
   116    47    52 1   
   117    47   135 1   
   118    48    49 1   
   119    48    51 1   
   120    48   136 1   
   121    49    50 1   
   122    49   137 1   
   123    49   138 1   
   124    51   139 1   
   125    52   140 1   
   126    53   141 1   
   127    54    55 1   
   128    55    56 1   
   129    55    60 1   
   130    55   142 1   
   131    56    57 1   
   132    56    76 1   
   133    56   143 1   
   134    57    58 1   
   135    57    64 1   
   136    57   144 1   
   137    58    59 1   
   138    58    63 1   
   139    58   145 1   
   140    59    60 1   
   141    59    61 1   
   142    59   146 1   
   143    61    62 1   
   144    61   147 1   
   145    61   148 1   
   146    62   149 1   
   147    63   150 1   
   148    64    65 1   
   149    65    66 1   
   150    65    70 1   
   151    65   151 1   
   152    66    67 1   
   153    66    75 1   
   154    66   152 1   
   155    67    68 1   
   156    67    74 1   
   157    67   153 1   
   158    68    69 1   
   159    68    73 1   
   160    68   154 1   
   161    69    70 1   
   162    69    71 1   
   163    69   155 1   
   164    71    72 1   
   165    71   156 1   
   166    71   157 1   
   167    72   158 1   
   168    73   159 1   
   169    74   160 1   
   170    75   161 1   
   171    76   162 1   
   172    77   163 1   
   173    78   164 1   
   174    79   165 1   
   175    80   166 1   
   176    80   167 1   
   177    80   168 1   
   178    81   169 1   
   179    81   170 1   
   180    81   171 1   
   181    82   172 1   
   182    83   173 1   
   183    83   174 1   
   184    83   175 1   
   185    84    85 1   
   186    85   176 1   
   187    85   177 1   
@<TRIPOS>SUBSTRUCTURE
     1 AJP         1 TEMP              0 ****  ****    0 ROOT
