@<TRIPOS>MOLECULE
AJP
  177   187     1     0     0
SMALL
abcg2


@<TRIPOS>ATOM
      1 C01         97.9790    99.5620   113.5970 c3         1 AJP      -0.084100
      2 C02         98.1650    99.9270   115.0620 c6         1 AJP      -0.098700
      3 C03         96.8910    99.7120   115.8730 c6         1 AJP      -0.069400
      4 C04         97.0780   100.2040   117.3030 c6         1 AJP      -0.082400
      5 C05         97.5980   101.6330   117.3470 c5         1 AJP       0.386000
      6 C06         97.9390   102.1440   118.7520 c5         1 AJP      -0.065700
      7 C07         97.7830   103.6590   118.6010 c5         1 AJP      -0.083700
      8 C08         96.8480   103.7970   117.3710 c5         1 AJP       0.169300
      9 O09         96.5800   102.4950   116.8990 os         1 AJP      -0.444000
     10 C10         95.6000   104.5700   117.8280 c5         1 AJP       0.174300
     11 C11         96.2310   105.4400   118.9130 c5         1 AJP      -0.106700
     12 C12         97.1350   104.4960   119.7340 c5         1 AJP      -0.026000
     13 C13         98.1160   105.3920   120.4910 c6         1 AJP      -0.067400
     14 C14         97.3820   106.4080   121.3710 c6         1 AJP      -0.069400
     15 C15         96.3410   107.2420   120.6140 c6         1 AJP      -0.046700
     16 C16         95.3840   106.3790   119.7580 c6         1 AJP      -0.045700
     17 C17         94.4910   107.2760   118.9030 c6         1 AJP      -0.073400
     18 C18         93.7480   108.3150   119.7320 c6         1 AJP      -0.068400
     19 C19         94.7140   109.1320   120.5800 c6         1 AJP      -0.054700
     20 C20         95.5670   108.2410   121.5130 c6         1 AJP      -0.031000
     21 C21         96.5520   109.1600   122.2480 c6         1 AJP      -0.075400
     22 C22         95.8860   110.2980   123.0120 c6         1 AJP       0.187300
     23 C23         95.0270   111.1320   122.0690 c6         1 AJP       0.140300
     24 C24         94.0190   110.2640   121.3310 c6         1 AJP      -0.094400
     25 O25         94.3660   112.1210   122.8500 os         1 AJP      -0.450000
     26 C26         94.2190   113.3750   122.3060 c6         1 AJP       0.382300
     27 C27         93.1990   114.1320   123.1560 c6         1 AJP       0.108300
     28 C28         93.1390   115.5950   122.7330 c6         1 AJP       0.160300
     29 C29         94.5330   116.2160   122.7320 c6         1 AJP       0.153300
     30 C30         95.4420   115.3450   121.8650 c6         1 AJP       0.139300
     31 O31         95.4650   114.0260   122.3670 os         1 AJP      -0.471000
     32 C32         96.8960   115.8010   121.7980 c3         1 AJP       0.172600
     33 O33         97.0290   117.0880   121.2540 oh         1 AJP      -0.731000
     34 O34         95.0770   116.2600   124.0450 os         1 AJP      -0.436000
     35 C35         95.2250   117.4870   124.6580 c6         1 AJP       0.393300
     36 C36         95.9380   117.2730   126.0030 c6         1 AJP       0.150300
     37 C37         96.4670   118.6010   126.5610 c6         1 AJP       0.130300
     38 C38         97.1700   119.4840   125.5280 c6         1 AJP       0.137300
     39 C39         96.2730   119.5820   124.2980 c6         1 AJP       0.188300
     40 O40         96.0470   118.2700   123.8270 os         1 AJP      -0.507000
     41 C41         96.8420   120.4010   123.1610 c3         1 AJP       0.170600
     42 O42         98.0580   119.8290   122.7430 oh         1 AJP      -0.714000
     43 O43         97.3810   120.7870   125.9990 oh         1 AJP      -0.735000
     44 O44         97.3570   118.2630   127.6100 os         1 AJP      -0.444000
     45 C45         97.2740   118.9500   128.7990 c6         1 AJP       0.361300
     46 C46         97.8470   118.0610   129.9020 c6         1 AJP       0.125300
     47 C47         97.8870   118.8400   131.2110 c6         1 AJP       0.136300
     48 C48         98.6390   120.1510   131.0160 c6         1 AJP       0.141300
     49 C49         98.0270   120.9180   129.8510 c6         1 AJP       0.169600
     50 O50         98.0500   120.1240   128.6810 os         1 AJP      -0.500000
     51 O51         98.5610   120.9790   132.1470 oh         1 AJP      -0.715000
     52 O52         98.5360   118.1280   132.2360 oh         1 AJP      -0.665000
     53 O53         97.0570   116.9190   130.0980 oh         1 AJP      -0.742000
     54 O54         95.0630   116.7750   127.0010 os         1 AJP      -0.439000
     55 C55         95.1870   115.4860   127.5100 c6         1 AJP       0.423300
     56 C56         94.4990   114.4490   126.6260 c6         1 AJP       0.101300
     57 C57         94.8050   113.0270   127.0750 c6         1 AJP       0.141300
     58 C58         96.3080   112.8290   127.1910 c6         1 AJP       0.139300
     59 C59         96.8130   113.8800   128.1830 c6         1 AJP       0.137300
     60 O60         96.5450   115.1930   127.7140 os         1 AJP      -0.479000
     61 C61         98.2940   113.7720   128.4820 c3         1 AJP       0.164600
     62 O62         99.0360   113.9060   127.2870 oh         1 AJP      -0.717000
     63 O63         96.8790   112.9580   125.9130 oh         1 AJP      -0.702000
     64 O64         94.2060   112.1840   126.1110 os         1 AJP      -0.413000
     65 C65         93.6020   111.0310   126.5510 c6         1 AJP       0.400300
     66 C66         92.5470   110.6030   125.5370 c6         1 AJP       0.148300
     67 C67         91.9130   109.3160   126.0440 c6         1 AJP       0.134300
     68 C68         92.9840   108.2520   126.2580 c6         1 AJP       0.115300
     69 C69         94.1030   108.8020   127.1550 c6         1 AJP       0.138300
     70 O70         94.5830   110.0310   126.6520 os         1 AJP      -0.482000
     71 C71         95.3190   107.8870   127.2010 c3         1 AJP       0.158600
     72 O72         94.9180   106.6290   127.7030 oh         1 AJP      -0.740000
     73 O73         92.3510   107.1350   126.8270 oh         1 AJP      -0.727000
     74 O74         90.9480   108.9240   125.0980 oh         1 AJP      -0.663000
     75 O75         91.6000   111.6400   125.4030 oh         1 AJP      -0.728000
     76 O76         93.1230   114.7310   126.7020 oh         1 AJP      -0.712000
     77 O77         92.3020   116.3510   123.5660 oh         1 AJP      -0.711000
     78 O78         91.9120   113.5790   123.0430 oh         1 AJP      -0.738000
     79 O79         96.9120   111.0510   123.6130 oh         1 AJP      -0.737000
     80 C80         94.7060   107.4990   122.5460 c3         1 AJP      -0.082100
     81 C81         96.3840   103.6300   120.7510 c3         1 AJP      -0.082100
     82 O82         94.6090   103.6780   118.2760 oh         1 AJP      -0.697000
     83 C83         99.2750   101.6960   119.3130 c3         1 AJP      -0.072100
     84 O84         98.7480   101.7760   116.5510 os         1 AJP      -0.476000
     85 C85         98.6050   101.3760   115.2000 c6         1 AJP       0.166600
     86 H1          97.6800    98.5190   113.4890 hc         1 AJP       0.034033
     87 H2          97.2040   100.1780   113.1350 hc         1 AJP       0.034033
     88 H3          98.8990    99.7030   113.0260 hc         1 AJP       0.034033
     89 H4          98.9520    99.2910   115.4860 hc         1 AJP       0.052700
     90 H5          96.0620   100.2450   115.3950 hc         1 AJP       0.048200
     91 H6          96.6180    98.6530   115.8740 hc         1 AJP       0.048200
     92 H7          96.1450   100.1440   117.8680 hc         1 AJP       0.056700
     93 H8          97.7990    99.5620   117.8180 hc         1 AJP       0.056700
     94 H9          97.1500   101.7510   119.3990 hc         1 AJP       0.068700
     95 H10         98.7590   104.0950   118.3670 hc         1 AJP       0.064700
     96 H11         97.3320   104.3920   116.5880 h1         1 AJP       0.050700
     97 H12         95.2090   105.1880   117.0070 h1         1 AJP       0.040700
     98 H13         96.9210   106.0930   118.3530 hc         1 AJP       0.050700
     99 H14         98.7920   104.7930   121.1110 hc         1 AJP       0.040700
    100 H15         98.7460   105.9230   119.7680 hc         1 AJP       0.040700
    101 H16         96.9150   105.8850   122.2090 hc         1 AJP       0.040700
    102 H17         98.1260   107.0730   121.8150 hc         1 AJP       0.040700
    103 H18         96.9010   107.8590   119.8920 hc         1 AJP       0.044700
    104 H19         94.7390   105.7910   120.4200 hc         1 AJP       0.052700
    105 H20         95.1170   107.7880   118.1620 hc         1 AJP       0.038700
    106 H21         93.7740   106.6740   118.3380 hc         1 AJP       0.038700
    107 H22         93.1900   108.9840   119.0710 hc         1 AJP       0.042700
    108 H23         93.0040   107.8290   120.3720 hc         1 AJP       0.042700
    109 H24         95.4240   109.6040   119.8850 hc         1 AJP       0.046700
    110 H25         97.1540   108.5890   122.9590 hc         1 AJP       0.052700
    111 H26         97.2480   109.5970   121.5210 hc         1 AJP       0.052700
    112 H27         95.2250   109.8720   123.7830 h1         1 AJP       0.032700
    113 H28         95.6950   111.6090   121.3380 h1         1 AJP       0.060700
    114 H29         93.4590   110.8800   120.6200 hc         1 AJP       0.048700
    115 H30         93.2850   109.8650   122.0380 hc         1 AJP       0.048700
    116 H31         93.8780   113.3310   121.2540 h2         1 AJP       0.025700
    117 H32         93.5490   114.0850   124.1890 h1         1 AJP       0.078700
    118 H33         92.7880   115.6310   121.6880 h1         1 AJP       0.039700
    119 H34         94.4700   117.2160   122.2910 h1         1 AJP       0.075700
    120 H35         95.0290   115.3600   120.8430 h1         1 AJP       0.042700
    121 H36         97.4320   115.1080   121.1450 h1         1 AJP       0.059200
    122 H37         97.3540   115.7200   122.7900 h1         1 AJP       0.059200
    123 H38         96.9290   117.7270   121.9690 ho         1 AJP       0.530000
    124 H39         94.2580   117.9980   124.8040 h2         1 AJP       0.054700
    125 H40         96.7830   116.6010   125.8150 h1         1 AJP       0.103700
    126 H41         95.6100   119.1700   126.9520 h1         1 AJP       0.058700
    127 H42         98.1130   118.9970   125.2410 h1         1 AJP       0.079700
    128 H43         95.3220   120.0550   124.5890 h1         1 AJP       0.048700
    129 H44         96.1030   120.4220   122.3500 h1         1 AJP       0.036200
    130 H45         96.9660   121.4330   123.5060 h1         1 AJP       0.036200
    131 H46         98.3820   120.3230   121.9840 ho         1 AJP       0.507000
    132 H47         97.8140   120.7490   126.8650 ho         1 AJP       0.538000
    133 H48         96.2300   119.2200   129.0370 h2         1 AJP       0.043700
    134 H49         98.8770   117.7960   129.6160 h1         1 AJP       0.064700
    135 H50         96.8510   119.0850   131.4970 h1         1 AJP       0.051700
    136 H51         99.6850   119.9170   130.7660 h1         1 AJP       0.057700
    137 H52         98.6000   121.8200   129.6370 h1         1 AJP       0.065200
    138 H53         97.0000   121.2190   130.1000 h1         1 AJP       0.065200
    139 H54         98.9390   120.5030   132.8940 ho         1 AJP       0.524000
    140 H55         97.9760   117.3920   132.5050 ho         1 AJP       0.463000
    141 H56         97.0530   116.4030   129.2790 ho         1 AJP       0.543000
    142 H57         94.6620   115.5110   128.4780 h2         1 AJP       0.070700
    143 H58         94.8790   114.5620   125.6060 h1         1 AJP       0.106700
    144 H59         94.3610   112.8460   128.0640 h1         1 AJP       0.043700
    145 H60         96.5150   111.8420   127.6290 h1         1 AJP       0.044700
    146 H61         96.2920   113.7070   129.1380 h1         1 AJP       0.043700
    147 H62         98.4590   112.7980   128.9560 h1         1 AJP       0.037200
    148 H63         98.5750   114.5390   129.2140 h1         1 AJP       0.037200
    149 H64         99.9320   113.5910   127.4390 ho         1 AJP       0.514000
    150 H65         97.8230   113.1430   126.0320 ho         1 AJP       0.537000
    151 H66         93.1250   111.1890   127.5360 h2         1 AJP       0.028700
    152 H67         93.0420   110.4040   124.5760 h1         1 AJP       0.087700
    153 H68         91.4410   109.5240   127.0180 h1         1 AJP       0.048700
    154 H69         93.4260   108.0080   125.2770 h1         1 AJP       0.055700
    155 H70         93.7010   108.9360   128.1730 h1         1 AJP       0.056700
    156 H71         95.7310   107.8030   126.1870 h1         1 AJP       0.044700
    157 H72         96.0900   108.3420   127.8350 h1         1 AJP       0.044700
    158 H73         95.6080   105.9850   127.5140 ho         1 AJP       0.521000
    159 H74         93.0460   106.5110   127.0780 ho         1 AJP       0.537000
    160 H75         90.3820   108.2540   125.4950 ho         1 AJP       0.469000
    161 H76         90.7700   111.2520   125.0980 ho         1 AJP       0.530000
    162 H77         92.6410   114.0430   126.2320 ho         1 AJP       0.521000
    163 H78         91.4620   115.8850   123.6420 ho         1 AJP       0.521000
    164 H79         91.8200   112.8900   123.7160 ho         1 AJP       0.533000
    165 H80         96.5380   111.6680   124.2560 ho         1 AJP       0.547000
    166 H81         94.0400   108.1730   123.0850 hc         1 AJP       0.031700
    167 H82         94.0770   106.7300   122.1010 hc         1 AJP       0.031700
    168 H83         95.3320   107.0140   123.2970 hc         1 AJP       0.031700
    169 H84         95.8340   104.2300   121.4750 hc         1 AJP       0.037700
    170 H85         95.6690   102.9540   120.2900 hc         1 AJP       0.037700
    171 H86         97.0960   103.0280   121.3210 hc         1 AJP       0.037700
    172 H87         93.9180   104.1910   118.7060 ho         1 AJP       0.497000
    173 H88         99.3830   102.0340   120.3450 hc         1 AJP       0.037033
    174 H89         99.3680   100.6080   119.3190 hc         1 AJP       0.037033
    175 H90        100.1120   102.1030   118.7470 hc         1 AJP       0.037033
    176 H91         99.5820   101.5270   114.7360 h1         1 AJP       0.046700
    177 H92         97.8940   102.0270   114.6720 h1         1 AJP       0.046700
@<TRIPOS>BOND
     1     1     2 1   
     2     1    86 1   
     3     1    87 1   
     4     1    88 1   
     5     2     3 1   
     6     2    85 1   
     7     2    89 1   
     8     3     4 1   
     9     3    90 1   
    10     3    91 1   
    11     4     5 1   
    12     4    92 1   
    13     4    93 1   
    14     5     6 1   
    15     5     9 1   
    16     5    84 1   
    17     6     7 1   
    18     6    83 1   
    19     6    94 1   
    20     7     8 1   
    21     7    12 1   
    22     7    95 1   
    23     8     9 1   
    24     8    10 1   
    25     8    96 1   
    26    10    11 1   
    27    10    82 1   
    28    10    97 1   
    29    11    12 1   
    30    11    16 1   
    31    11    98 1   
    32    12    13 1   
    33    12    81 1   
    34    13    14 1   
    35    13    99 1   
    36    13   100 1   
    37    14    15 1   
    38    14   101 1   
    39    14   102 1   
    40    15    16 1   
    41    15    20 1   
    42    15   103 1   
    43    16    17 1   
    44    16   104 1   
    45    17    18 1   
    46    17   105 1   
    47    17   106 1   
    48    18    19 1   
    49    18   107 1   
    50    18   108 1   
    51    19    20 1   
    52    19    24 1   
    53    19   109 1   
    54    20    21 1   
    55    20    80 1   
    56    21    22 1   
    57    21   110 1   
    58    21   111 1   
    59    22    23 1   
    60    22    79 1   
    61    22   112 1   
    62    23    24 1   
    63    23    25 1   
    64    23   113 1   
    65    24   114 1   
    66    24   115 1   
    67    25    26 1   
    68    26    27 1   
    69    26    31 1   
    70    26   116 1   
    71    27    28 1   
    72    27    78 1   
    73    27   117 1   
    74    28    29 1   
    75    28    77 1   
    76    28   118 1   
    77    29    30 1   
    78    29    34 1   
    79    29   119 1   
    80    30    31 1   
    81    30    32 1   
    82    30   120 1   
    83    32    33 1   
    84    32   121 1   
    85    32   122 1   
    86    33   123 1   
    87    34    35 1   
    88    35    36 1   
    89    35    40 1   
    90    35   124 1   
    91    36    37 1   
    92    36    54 1   
    93    36   125 1   
    94    37    38 1   
    95    37    44 1   
    96    37   126 1   
    97    38    39 1   
    98    38    43 1   
    99    38   127 1   
   100    39    40 1   
   101    39    41 1   
   102    39   128 1   
   103    41    42 1   
   104    41   129 1   
   105    41   130 1   
   106    42   131 1   
   107    43   132 1   
   108    44    45 1   
   109    45    46 1   
   110    45    50 1   
   111    45   133 1   
   112    46    47 1   
   113    46    53 1   
   114    46   134 1   
   115    47    48 1   
   116    47    52 1   
   117    47   135 1   
   118    48    49 1   
   119    48    51 1   
   120    48   136 1   
   121    49    50 1   
   122    49   137 1   
   123    49   138 1   
   124    51   139 1   
   125    52   140 1   
   126    53   141 1   
   127    54    55 1   
   128    55    56 1   
   129    55    60 1   
   130    55   142 1   
   131    56    57 1   
   132    56    76 1   
   133    56   143 1   
   134    57    58 1   
   135    57    64 1   
   136    57   144 1   
   137    58    59 1   
   138    58    63 1   
   139    58   145 1   
   140    59    60 1   
   141    59    61 1   
   142    59   146 1   
   143    61    62 1   
   144    61   147 1   
   145    61   148 1   
   146    62   149 1   
   147    63   150 1   
   148    64    65 1   
   149    65    66 1   
   150    65    70 1   
   151    65   151 1   
   152    66    67 1   
   153    66    75 1   
   154    66   152 1   
   155    67    68 1   
   156    67    74 1   
   157    67   153 1   
   158    68    69 1   
   159    68    73 1   
   160    68   154 1   
   161    69    70 1   
   162    69    71 1   
   163    69   155 1   
   164    71    72 1   
   165    71   156 1   
   166    71   157 1   
   167    72   158 1   
   168    73   159 1   
   169    74   160 1   
   170    75   161 1   
   171    76   162 1   
   172    77   163 1   
   173    78   164 1   
   174    79   165 1   
   175    80   166 1   
   176    80   167 1   
   177    80   168 1   
   178    81   169 1   
   179    81   170 1   
   180    81   171 1   
   181    82   172 1   
   182    83   173 1   
   183    83   174 1   
   184    83   175 1   
   185    84    85 1   
   186    85   176 1   
   187    85   177 1   
@<TRIPOS>SUBSTRUCTURE
     1 AJP         1 TEMP              0 ****  ****    0 ROOT
