@<TRIPOS>MOLECULE
AJR
   57    59     1     0     0
SMALL
No Charge or Current Charge


@<TRIPOS>ATOM
      1 N1          -0.6970    -0.9190    -0.0240 nb         1 AJR      -0.359000
      2 N3          -0.1790     2.7700     0.0400 nc         1 AJR      -0.544100
      3 C4          -2.0450    -0.8390     0.0240 ca         1 AJR       0.443900
      4 C5          -1.2950     3.5220     0.0930 cd         1 AJR       0.385700
      5 C7          -4.1640     4.0490     1.4280 c3         1 AJR      -0.107100
      6 C8          -4.2660     3.9680    -1.1250 c3         1 AJR      -0.107100
      7 C10         -2.0760    -3.3840    -0.0760 c3         1 AJR       0.245300
      8 C13          2.2150    -0.9930    -0.1050 c3         1 AJR       0.281100
      9 C15          4.3880    -0.3740     1.0570 ca         1 AJR      -0.055000
     10 C17          6.3810     0.2400    -0.2120 ca         1 AJR       0.149100
     11 C20          8.5210     0.8490     0.8570 c3         1 AJR       0.147900
     12 O2          -4.7950    -2.9280    -2.1700 oh         1 AJR      -0.665000
     13 C9          -4.2560    -2.0990     0.1140 c3         1 AJR       0.245300
     14 N5          -2.7650    -2.0610     0.0210 nh         1 AJR      -0.763300
     15 C11         -1.5040    -3.9390     1.2620 c3         1 AJR       0.136100
     16 O1          -2.5480    -4.2700     2.2000 oh         1 AJR      -0.665000
     17 C1          -0.0250     0.2420    -0.0200 ca         1 AJR       0.474900
     18 C2          -0.7010     1.4770     0.0300 ca         1 AJR      -0.143600
     19 N4          -2.4770     2.7620     0.1190 na         1 AJR      -0.288300
     20 C3          -2.0700     1.4550     0.0760 ca         1 AJR       0.165500
     21 N2          -2.7670     0.3050     0.0750 nb         1 AJR      -0.304000
     22 N6           1.3590     0.1930    -0.0660 nu         1 AJR      -0.912100
     23 C14          3.6730    -0.5620    -0.1420 ca         1 AJR      -0.154300
     24 C19          4.3180    -0.3450    -1.3740 ca         1 AJR      -0.055000
     25 C18          5.6660     0.0530    -1.4050 ca         1 AJR      -0.176000
     26 C16          5.7360     0.0240     1.0260 ca         1 AJR      -0.176000
     27 H1          -1.3260     4.6060     0.1140 h5         1 AJR       0.060800
     28 H2          -4.5170     2.3200     0.2170 h1         1 AJR       0.083700
     29 H3          -3.5740     4.9730     1.4300 hc         1 AJR       0.045867
     30 H4          -5.2250     4.3190     1.4800 hc         1 AJR       0.045867
     31 H5          -3.9140     3.4770     2.3300 hc         1 AJR       0.045867
     32 H7          -3.6760     4.8860    -1.2360 hc         1 AJR       0.045867
     33 H8          -4.0930     3.3380    -2.0060 hc         1 AJR       0.045867
     34 H6          -5.3280     4.2420    -1.1070 hc         1 AJR       0.045867
     35 H11         -2.7650    -4.1340    -0.4870 h1         1 AJR       0.066450
     36 H12         -1.2540    -3.3220    -0.8030 h1         1 AJR       0.066450
     37 H21          2.0380    -1.6200     0.7800 h1         1 AJR       0.055200
     38 H20          1.9870    -1.5990    -0.9940 h1         1 AJR       0.055200
     39 H22          3.8970    -0.5360     2.0150 ha         1 AJR       0.117000
     40 H26          9.5320     1.1530     0.5570 h1         1 AJR       0.041367
     41 H27          8.1010     1.6420     1.4870 h1         1 AJR       0.041367
     42 H28          8.6050    -0.0690     1.4520 h1         1 AJR       0.041367
     43 H18         -5.2470    -2.6710    -3.0040 ho         1 AJR       0.439000
     44 H17         -4.6920    -0.9010    -1.6530 h1         1 AJR       0.028950
     45 H16         -6.0870    -1.7750    -1.0040 h1         1 AJR       0.028950
     46 H10         -4.6020    -1.3540     0.8430 h1         1 AJR       0.066450
     47 H9          -4.5800    -3.0680     0.5180 h1         1 AJR       0.066450
     48 H13         -0.9090    -4.8350     1.0380 h1         1 AJR       0.028950
     49 H14         -0.8230    -3.1950     1.6960 h1         1 AJR       0.028950
     50 H15         -2.1080    -4.5450     3.0350 ho         1 AJR       0.439000
     51 H19          1.8100     1.1060    -0.0590 hn         1 AJR       0.511000
     52 H25          3.7750    -0.4830    -2.3080 ha         1 AJR       0.117000
     53 H24          6.1590     0.2190    -2.3590 ha         1 AJR       0.123500
     54 H23          6.2600     0.1610     1.9670 ha         1 AJR       0.123500
     55 C6          -3.8790     3.2130     0.1630 c3         1 AJR       0.096300
     56 O3           7.7010     0.6310    -0.3060 os         1 AJR      -0.340100
     57 C12         -5.0150    -1.8600    -1.2260 c3         1 AJR       0.136100
@<TRIPOS>BOND
     1     1     3 ar  
     2     1    17 ar  
     3     2     4 2   
     4     2    18 1   
     5     3    14 1   
     6     3    21 ar  
     7     4    19 1   
     8     4    27 1   
     9     5    29 1   
    10     5    30 1   
    11     5    31 1   
    12     5    55 1   
    13     6    32 1   
    14     6    33 1   
    15     6    34 1   
    16     6    55 1   
    17     7    14 1   
    18     7    15 1   
    19     7    35 1   
    20     7    36 1   
    21     8    22 1   
    22     8    23 1   
    23     8    37 1   
    24     8    38 1   
    25     9    23 ar  
    26     9    26 ar  
    27     9    39 1   
    28    10    25 ar  
    29    10    26 ar  
    30    10    56 1   
    31    11    40 1   
    32    11    41 1   
    33    11    42 1   
    34    11    56 1   
    35    12    43 1   
    36    12    57 1   
    37    13    14 1   
    38    13    46 1   
    39    13    47 1   
    40    13    57 1   
    41    15    16 1   
    42    15    48 1   
    43    15    49 1   
    44    16    50 1   
    45    17    18 ar  
    46    17    22 1   
    47    18    20 ar  
    48    19    20 1   
    49    19    55 1   
    50    20    21 ar  
    51    22    51 1   
    52    23    24 ar  
    53    24    25 ar  
    54    24    52 1   
    55    25    53 1   
    56    26    54 1   
    57    28    55 1   
    58    44    57 1   
    59    45    57 1   
@<TRIPOS>SUBSTRUCTURE
     1 AJR         1 TEMP              0 ****  ****    0 ROOT
