@<TRIPOS>MOLECULE
AJR
   57    59     1     0     0
SMALL
bcc


@<TRIPOS>ATOM
      1 N1          -0.6710    -0.7230     0.1500 nb         1 AJR      -0.885000
      2 N3          -0.4180     2.9470     0.4490 nc         1 AJR      -0.544100
      3 C4          -2.0160    -0.7270     0.0860 ca         1 AJR       0.969900
      4 C5          -1.5590     3.5720     0.4540 cd         1 AJR       0.385700
      5 C7          -4.3830     4.2730     1.1580 c3         1 AJR      -0.107100
      6 C8          -4.4200     3.3700    -1.2000 c3         1 AJR      -0.107100
      7 C10         -1.8120    -3.1460    -0.1800 c3         1 AJR       0.245300
      8 C13          2.1050    -0.7910     0.4490 c3         1 AJR       0.281100
      9 C15          4.4900    -0.5210     1.2070 ca         1 AJR      -0.073000
     10 C17          6.2600     0.0570    -0.3150 ca         1 AJR       0.149100
     11 C20          8.5170     0.3240     0.3640 c3         1 AJR       0.124700
     12 O2          -4.2160    -2.6800    -2.3620 oh         1 AJR      -0.602800
     13 C9          -4.0510    -2.0490    -0.0650 c3         1 AJR       0.245300
     14 N5          -2.6070    -1.9420    -0.0460 nh         1 AJR      -0.763300
     15 C11         -1.3030    -3.7020     1.1350 c3         1 AJR       0.112900
     16 O1          -2.4030    -4.0490     1.9480 oh         1 AJR      -0.602800
     17 C1          -0.0200     0.4260     0.2680 ca         1 AJR       0.803200
     18 C2          -0.7610     1.6230     0.3300 ca         1 AJR      -0.274200
     19 N4          -2.6400     2.7370     0.3570 na         1 AJR      -0.259000
     20 C3          -2.1370     1.4730     0.2680 ca         1 AJR       0.493800
     21 N2          -2.8160     0.3390     0.1450 nb         1 AJR      -0.830000
     22 N6           1.3230     0.4210     0.3180 nu         1 AJR      -0.856900
     23 C14          3.5550    -0.5060     0.1830 ca         1 AJR      -0.154300
     24 C19          3.9980    -0.1980    -1.1040 ca         1 AJR      -0.073000
     25 C18          5.3270     0.0790    -1.3570 ca         1 AJR      -0.194000
     26 C16          5.8340    -0.2460     0.9740 ca         1 AJR      -0.194000
     27 H1          -1.6750     4.6420     0.5320 h5         1 AJR       0.060800
     28 H2          -4.6000     2.2220     0.5980 h1         1 AJR       0.083700
     29 H3          -3.9080     5.1960     0.8230 hc         1 AJR       0.045867
     30 H4          -5.4600     4.4400     1.1480 hc         1 AJR       0.045867
     31 H5          -4.0810     4.0820     2.1880 hc         1 AJR       0.045867
     32 H7          -3.8630     4.2230    -1.5910 hc         1 AJR       0.045867
     33 H8          -4.2110     2.5040    -1.8280 hc         1 AJR       0.045867
     34 H6          -5.4840     3.5950    -1.2820 hc         1 AJR       0.045867
     35 H11         -2.4260    -3.8950    -0.6800 h1         1 AJR       0.066450
     36 H12         -0.9560    -2.9590    -0.8280 h1         1 AJR       0.066450
     37 H21          1.9870    -1.2270     1.4470 h1         1 AJR       0.055200
     38 H20          1.7210    -1.5280    -0.2570 h1         1 AJR       0.055200
     39 H22          4.1740    -0.7520     2.2170 ha         1 AJR       0.135000
     40 H26          9.4610     0.5680    -0.1160 h1         1 AJR       0.041367
     41 H27          8.3150     1.0670     1.1400 h1         1 AJR       0.041367
     42 H28          8.6050    -0.6590     0.8340 h1         1 AJR       0.041367
     43 H18         -4.5380    -2.4120    -3.2270 ho         1 AJR       0.400000
     44 H17         -4.4320    -0.7180    -1.7020 h1         1 AJR       0.028950
     45 H16         -5.7700    -1.7940    -1.2920 h1         1 AJR       0.028950
     46 H10         -4.4840    -1.3750     0.6740 h1         1 AJR       0.066450
     47 H9          -4.3140    -3.0620     0.2430 h1         1 AJR       0.066450
     48 H13         -0.6740    -4.5740     0.9100 h1         1 AJR       0.028950
     49 H14         -0.6610    -2.9580     1.6190 h1         1 AJR       0.028950
     50 H15         -2.0690    -4.3160     2.8090 ho         1 AJR       0.400000
     51 H19          1.7710     1.2890     0.5690 hn         1 AJR       0.455800
     52 H25          3.2910    -0.1780    -1.9250 ha         1 AJR       0.135000
     53 H24          5.6570     0.3110    -2.3620 ha         1 AJR       0.141500
     54 H23          6.5240    -0.2710     1.8070 ha         1 AJR       0.141500
     55 C6          -4.0500     3.0990     0.2520 c3         1 AJR       0.067000
     56 O3           7.5340     0.3380    -0.6510 os         1 AJR      -0.316900
     57 C12         -4.6780    -1.7450    -1.4110 c3         1 AJR       0.112900
@<TRIPOS>BOND
     1     1     3 ar  
     2     1    17 ar  
     3     2     4 2   
     4     2    18 1   
     5     3    14 1   
     6     3    21 ar  
     7     4    19 1   
     8     4    27 1   
     9     5    29 1   
    10     5    30 1   
    11     5    31 1   
    12     5    55 1   
    13     6    32 1   
    14     6    33 1   
    15     6    34 1   
    16     6    55 1   
    17     7    14 1   
    18     7    15 1   
    19     7    35 1   
    20     7    36 1   
    21     8    22 1   
    22     8    23 1   
    23     8    37 1   
    24     8    38 1   
    25     9    23 ar  
    26     9    26 ar  
    27     9    39 1   
    28    10    25 ar  
    29    10    26 ar  
    30    10    56 1   
    31    11    40 1   
    32    11    41 1   
    33    11    42 1   
    34    11    56 1   
    35    12    43 1   
    36    12    57 1   
    37    13    14 1   
    38    13    46 1   
    39    13    47 1   
    40    13    57 1   
    41    15    16 1   
    42    15    48 1   
    43    15    49 1   
    44    16    50 1   
    45    17    18 ar  
    46    17    22 1   
    47    18    20 ar  
    48    19    20 1   
    49    19    55 1   
    50    20    21 ar  
    51    22    51 1   
    52    23    24 ar  
    53    24    25 ar  
    54    24    52 1   
    55    25    53 1   
    56    26    54 1   
    57    28    55 1   
    58    44    57 1   
    59    45    57 1   
@<TRIPOS>SUBSTRUCTURE
     1 AJR         1 TEMP              0 ****  ****    0 ROOT
