@<TRIPOS>MOLECULE
AJT
   66    70     1     0     0
SMALL
No Charge or Current Charge


@<TRIPOS>ATOM
      1 N1         -14.8550   -42.5020   -11.4510 nb         1 AJT      -0.621000
      2 N3         -16.0180   -40.0740   -14.0620 ns         1 AJT      -0.338900
      3 C4         -16.2160   -47.9840   -11.3510 ca         1 AJT      -0.093000
      4 C5         -15.1030   -48.7600   -11.7280 ca         1 AJT      -0.109000
      5 C6         -14.5250   -48.5970   -13.0060 ca         1 AJT      -0.109000
      6 C7         -15.0600   -47.6570   -13.9090 ca         1 AJT      -0.093000
      7 C8         -16.1680   -46.8910   -13.5140 ca         1 AJT      -0.094300
      8 C10        -15.5600   -41.9840   -12.5170 ca         1 AJT       0.170500
      9 C13        -15.2980   -40.6600   -13.0040 ca         1 AJT       0.516900
     10 C15        -16.4360   -37.8000   -17.0150 c6         1 AJT       0.097500
     11 C17        -17.9850   -39.1700   -18.5100 c6         1 AJT       0.110700
     12 C20        -19.0280   -40.0950   -22.9920 c5         1 AJT      -0.096400
     13 C21        -20.1880   -40.7060   -23.8210 c5         1 AJT      -0.114400
     14 C22        -20.0230   -42.2000   -23.4830 c5         1 AJT       0.141800
     15 C24        -18.0370   -39.3800   -15.9700 c6         1 AJT       0.097500
     16 N          -16.7260   -44.1340   -12.6370 ns         1 AJT      -0.465900
     17 C          -16.6340   -42.8570   -13.1630 c          1 AJT       0.521600
     18 O          -17.3730   -42.4790   -14.0660 o          1 AJT      -0.657100
     19 C1         -17.6940   -45.0850   -13.2090 c5         1 AJT       0.116700
     20 C11        -13.9300   -41.6780   -10.8900 ca         1 AJT       0.232900
     21 C12        -13.7060   -40.3600   -11.3610 ca         1 AJT       0.359900
     22 C14        -15.6780   -39.0960   -14.9670 c          1 AJT       0.668100
     23 C16        -16.5900   -38.5100   -18.3800 c6         1 AJT      -0.122400
     24 C18        -19.2550   -40.2060   -20.4370 c          1 AJT       0.592100
     25 C19        -18.9390   -41.0340   -21.7410 c5         1 AJT       0.072500
     26 C2         -17.9150   -46.1360   -12.0500 c5         1 AJT      -0.049100
     27 C23        -18.2180   -40.1250   -17.3120 c6         1 AJT      -0.122400
     28 C3         -16.7330   -47.0510   -12.2630 ca         1 AJT      -0.094300
     29 C9         -16.8820   -45.8440   -14.3340 c5         1 AJT      -0.049100
     30 N2         -14.3910   -39.8370   -12.4130 nb         1 AJT      -0.668000
     31 N4         -16.6850   -38.7540   -15.9020 n          1 AJT      -0.411800
     32 N5         -18.0820   -39.9000   -19.7780 ns         1 AJT      -0.500900
     33 N6         -19.9060   -42.1560   -22.0130 n7         1 AJT      -0.830400
     34 O1         -20.3630   -39.8970   -20.0120 o          1 AJT      -0.610100
     35 O2         -14.5790   -38.5610   -14.9970 o          1 AJT      -0.585100
     36 H1         -16.9160   -40.5060   -14.2210 hn         1 AJT       0.204000
     37 H3         -14.6880   -49.4870   -11.0340 ha         1 AJT       0.113000
     38 H4         -13.6660   -49.1980   -13.2940 ha         1 AJT       0.113000
     39 H5         -14.6200   -47.5280   -14.8960 ha         1 AJT       0.115000
     40 H6         -15.4310   -37.3600   -16.9450 h1         1 AJT       0.065950
     41 H7         -17.1560   -36.9710   -16.9450 h1         1 AJT       0.065950
     42 H8         -18.7540   -38.3820   -18.4980 h1         1 AJT       0.078700
     43 H9         -18.0880   -40.1190   -23.5560 hc         1 AJT       0.051200
     44 H10        -19.2160   -39.0460   -22.7340 hc         1 AJT       0.051200
     45 H11        -20.0940   -40.5040   -24.8940 hc         1 AJT       0.054700
     46 H12        -21.1640   -40.3260   -23.4960 hc         1 AJT       0.054700
     47 H13        -20.8820   -42.8030   -23.8120 h1         1 AJT       0.054700
     48 H14        -19.1140   -42.6180   -23.9420 h1         1 AJT       0.054700
     49 H15        -18.7960   -38.5890   -15.8890 h1         1 AJT       0.065950
     50 H16        -18.2210   -40.0750   -15.1410 h1         1 AJT       0.065950
     51 H17        -16.0670   -44.3630   -11.9000 hn         1 AJT       0.350500
     52 H18        -18.6230   -44.6150   -13.5600 h1         1 AJT       0.079700
     53 H19        -13.3660   -42.0720   -10.0460 h4         1 AJT       0.036100
     54 H20        -12.9670   -39.7160   -10.8860 h4         1 AJT       0.034100
     55 H21        -15.8020   -39.2680   -18.4850 hc         1 AJT       0.058450
     56 H22        -16.4410   -37.7840   -19.1920 hc         1 AJT       0.058450
     57 H23        -17.9200   -41.4380   -21.6590 h1         1 AJT       0.070700
     58 H24        -17.9450   -45.6810   -11.0530 hc         1 AJT       0.065700
     59 H25        -18.8580   -46.6770   -12.1880 hc         1 AJT       0.065700
     60 H26        -19.2290   -40.5510   -17.3610 hc         1 AJT       0.058450
     61 H27        -17.5170   -40.9690   -17.3590 hc         1 AJT       0.058450
     62 H28        -16.2030   -45.1900   -14.8950 hc         1 AJT       0.065700
     63 H29        -17.5580   -46.3080   -15.0600 hc         1 AJT       0.065700
     64 H30        -17.2230   -40.2150   -20.2120 hn         1 AJT       0.313500
     65 H31        -20.8230   -41.8720   -21.6380 hn         1 AJT       0.429000
     66 H2         -16.6670   -48.1060   -10.3680 ha         1 AJT       0.115000
@<TRIPOS>BOND
     1     1     8 ar  
     2     1    20 ar  
     3     2     9 1   
     4     2    22 1   
     5     2    36 1   
     6     3     4 ar  
     7     3    28 ar  
     8     3    66 1   
     9     4     5 ar  
    10     4    37 1   
    11     5     6 ar  
    12     5    38 1   
    13     6     7 ar  
    14     6    39 1   
    15     7    28 ar  
    16     7    29 1   
    17     8     9 ar  
    18     8    17 1   
    19     9    30 ar  
    20    10    23 1   
    21    10    31 1   
    22    10    40 1   
    23    10    41 1   
    24    11    23 1   
    25    11    27 1   
    26    11    32 1   
    27    11    42 1   
    28    12    13 1   
    29    12    25 1   
    30    12    43 1   
    31    12    44 1   
    32    13    14 1   
    33    13    45 1   
    34    13    46 1   
    35    14    33 1   
    36    14    47 1   
    37    14    48 1   
    38    15    27 1   
    39    15    31 1   
    40    15    49 1   
    41    15    50 1   
    42    16    17 1   
    43    16    19 1   
    44    16    51 1   
    45    17    18 2   
    46    19    26 1   
    47    19    29 1   
    48    19    52 1   
    49    20    21 ar  
    50    20    53 1   
    51    21    30 ar  
    52    21    54 1   
    53    22    31 1   
    54    22    35 2   
    55    23    55 1   
    56    23    56 1   
    57    24    25 1   
    58    24    32 1   
    59    24    34 2   
    60    25    33 1   
    61    25    57 1   
    62    26    28 1   
    63    26    58 1   
    64    26    59 1   
    65    27    60 1   
    66    27    61 1   
    67    29    62 1   
    68    29    63 1   
    69    32    64 1   
    70    33    65 1   
@<TRIPOS>SUBSTRUCTURE
     1 AJT         1 TEMP              0 ****  ****    0 ROOT
