@<TRIPOS>MOLECULE
AJT
   66    70     1     0     0
SMALL
abcg2


@<TRIPOS>ATOM
      1 N1         -14.9350   -42.2360   -11.5830 nb         1 AJT      -0.621000
      2 N3         -16.2010   -40.0320   -14.1600 ns         1 AJT      -0.338900
      3 C4         -15.9050   -48.0070   -11.7610 ca         1 AJT      -0.093000
      4 C5         -14.9650   -48.7640   -12.4530 ca         1 AJT      -0.109000
      5 C6         -14.7210   -48.5240   -13.8010 ca         1 AJT      -0.109000
      6 C7         -15.4140   -47.5230   -14.4770 ca         1 AJT      -0.093000
      7 C8         -16.3490   -46.7700   -13.7860 ca         1 AJT      -0.094300
      8 C10        -15.6590   -41.7900   -12.5950 ca         1 AJT       0.170500
      9 C13        -15.4500   -40.4880   -13.1100 ca         1 AJT       0.516900
     10 C15        -16.5540   -37.8280   -17.0390 c6         1 AJT       0.097500
     11 C17        -18.0060   -39.4040   -18.3570 c6         1 AJT       0.110700
     12 C20        -18.3570   -40.6530   -22.6690 c5         1 AJT      -0.096400
     13 C21        -19.5290   -40.7080   -23.6440 c5         1 AJT      -0.114400
     14 C22        -20.1720   -42.0430   -23.2850 c5         1 AJT       0.141800
     15 C24        -18.2040   -39.1420   -15.8760 c6         1 AJT       0.097500
     16 N          -16.7190   -43.9320   -12.5880 ns         1 AJT      -0.465900
     17 C          -16.7040   -42.7180   -13.1330 c          1 AJT       0.521600
     18 O          -17.4970   -42.3600   -14.0080 o          1 AJT      -0.657100
     19 C1         -17.6690   -44.9570   -12.9800 c5         1 AJT       0.116700
     20 C11        -14.0210   -41.4490   -11.0480 ca         1 AJT       0.232900
     21 C12        -13.8510   -40.1590   -11.5300 ca         1 AJT       0.359900
     22 C14        -15.8440   -39.0190   -15.0450 c          1 AJT       0.668100
     23 C16        -16.6420   -38.7220   -18.2710 c6         1 AJT      -0.122400
     24 C18        -19.1040   -40.5210   -20.2610 c          1 AJT       0.592100
     25 C19        -18.8630   -41.4600   -21.4320 c5         1 AJT       0.072500
     26 C2         -17.6580   -46.0780   -11.9300 c5         1 AJT      -0.049100
     27 C23        -18.3510   -40.1100   -17.0440 c6         1 AJT      -0.122400
     28 C3         -16.5920   -47.0110   -12.4350 ca         1 AJT      -0.094300
     29 C9         -17.2310   -45.6590   -14.2820 c5         1 AJT      -0.049100
     30 N2         -14.5580   -39.6870   -12.5400 nb         1 AJT      -0.668000
     31 N4         -16.8620   -38.5870   -15.8380 n          1 AJT      -0.411800
     32 N5         -18.0330   -40.3160   -19.4800 ns         1 AJT      -0.500900
     33 N6         -20.0940   -42.1330   -21.8300 n7         1 AJT      -0.830400
     34 O1         -20.1800   -39.9630   -20.0920 o          1 AJT      -0.610100
     35 O2         -14.7180   -38.5600   -15.1030 o          1 AJT      -0.585100
     36 H1         -16.9320   -40.6910   -14.4220 hn         1 AJT       0.204000
     37 H3         -14.4150   -49.5410   -11.9380 ha         1 AJT       0.113000
     38 H4         -13.9830   -49.1160   -14.3270 ha         1 AJT       0.113000
     39 H5         -15.2170   -47.3360   -15.5260 ha         1 AJT       0.115000
     40 H6         -15.5670   -37.3830   -16.9550 h1         1 AJT       0.065950
     41 H7         -17.2740   -37.0080   -17.1170 h1         1 AJT       0.065950
     42 H8         -18.7630   -38.6370   -18.5400 h1         1 AJT       0.078700
     43 H9         -17.4830   -41.1490   -23.0930 hc         1 AJT       0.051200
     44 H10        -18.0560   -39.6350   -22.4180 hc         1 AJT       0.051200
     45 H11        -19.2150   -40.6420   -24.6860 hc         1 AJT       0.054700
     46 H12        -20.2310   -39.8930   -23.4530 hc         1 AJT       0.054700
     47 H13        -21.2070   -42.1400   -23.6160 h1         1 AJT       0.054700
     48 H14        -19.6070   -42.8640   -23.7380 h1         1 AJT       0.054700
     49 H15        -18.9000   -38.3070   -16.0030 h1         1 AJT       0.065950
     50 H16        -18.4730   -39.6050   -14.9290 h1         1 AJT       0.065950
     51 H17        -16.0270   -44.1300   -11.8790 hn         1 AJT       0.350500
     52 H18        -18.6540   -44.5010   -13.0780 h1         1 AJT       0.079700
     53 H19        -13.4310   -41.8330   -10.2260 h4         1 AJT       0.036100
     54 H20        -13.1290   -39.4900   -11.0770 h4         1 AJT       0.034100
     55 H21        -15.8500   -39.4770   -18.2210 hc         1 AJT       0.058450
     56 H22        -16.4680   -38.1270   -19.1700 hc         1 AJT       0.058450
     57 H23        -18.1040   -42.1960   -21.1510 h1         1 AJT       0.070700
     58 H24        -17.4870   -45.7100   -10.9170 hc         1 AJT       0.065700
     59 H25        -18.6300   -46.5800   -11.9230 hc         1 AJT       0.065700
     60 H26        -19.3740   -40.4910   -17.0830 hc         1 AJT       0.058450
     61 H27        -17.6870   -40.9680   -16.9000 hc         1 AJT       0.058450
     62 H28        -16.7410   -44.9840   -14.9830 hc         1 AJT       0.065700
     63 H29        -18.1080   -46.0680   -14.7940 hc         1 AJT       0.065700
     64 H30        -17.2060   -40.8690   -19.6470 hn         1 AJT       0.313500
     65 H31        -20.8730   -41.6170   -21.4380 hn         1 AJT       0.429000
     66 H2         -16.0900   -48.1930   -10.7090 ha         1 AJT       0.115000
@<TRIPOS>BOND
     1     1     8 ar  
     2     1    20 ar  
     3     2     9 1   
     4     2    22 1   
     5     2    36 1   
     6     3     4 ar  
     7     3    28 ar  
     8     3    66 1   
     9     4     5 ar  
    10     4    37 1   
    11     5     6 ar  
    12     5    38 1   
    13     6     7 ar  
    14     6    39 1   
    15     7    28 ar  
    16     7    29 1   
    17     8     9 ar  
    18     8    17 1   
    19     9    30 ar  
    20    10    23 1   
    21    10    31 1   
    22    10    40 1   
    23    10    41 1   
    24    11    23 1   
    25    11    27 1   
    26    11    32 1   
    27    11    42 1   
    28    12    13 1   
    29    12    25 1   
    30    12    43 1   
    31    12    44 1   
    32    13    14 1   
    33    13    45 1   
    34    13    46 1   
    35    14    33 1   
    36    14    47 1   
    37    14    48 1   
    38    15    27 1   
    39    15    31 1   
    40    15    49 1   
    41    15    50 1   
    42    16    17 1   
    43    16    19 1   
    44    16    51 1   
    45    17    18 2   
    46    19    26 1   
    47    19    29 1   
    48    19    52 1   
    49    20    21 ar  
    50    20    53 1   
    51    21    30 ar  
    52    21    54 1   
    53    22    31 1   
    54    22    35 2   
    55    23    55 1   
    56    23    56 1   
    57    24    25 1   
    58    24    32 1   
    59    24    34 2   
    60    25    33 1   
    61    25    57 1   
    62    26    28 1   
    63    26    58 1   
    64    26    59 1   
    65    27    60 1   
    66    27    61 1   
    67    29    62 1   
    68    29    63 1   
    69    32    64 1   
    70    33    65 1   
@<TRIPOS>SUBSTRUCTURE
     1 AJT         1 TEMP              0 ****  ****    0 ROOT
