@<TRIPOS>MOLECULE
AJU
   48    49     1     0     0
SMALL
No Charge or Current Charge


@<TRIPOS>ATOM
      1 OAX          5.8770    -1.8010     0.7580 o          1 AJU      -0.724000
      2 CAW          5.7760    -0.5840     0.6820 c          1 AJU       0.716600
      3 OAY          6.7280     0.1690     0.8310 o          1 AJU      -0.724000
      4 CAV          4.4100     0.0160     0.3870 ca         1 AJU      -0.151600
      5 CAU          3.2710    -0.8110     0.2440 ca         1 AJU      -0.089000
      6 CAQ          1.9990    -0.2600    -0.0320 ca         1 AJU       0.039100
      7 OAP          0.8850    -1.0760    -0.1250 os         1 AJU      -0.338100
      8 CAO          0.9120    -2.3220    -0.8600 c3         1 AJU       0.166600
      9 CAN         -0.1530    -3.2790    -0.2740 c3         1 AJU       0.155600
     10 OAM         -1.4740    -2.8060    -0.5990 os         1 AJU      -0.420000
     11 CAL         -2.5350    -3.6250    -0.0650 c3         1 AJU       0.164600
     12 CAK         -3.9030    -3.0010    -0.4280 c3         1 AJU       0.164600
     13 OAJ         -4.0760    -1.7850     0.3230 os         1 AJU      -0.415000
     14 CAI         -5.3430    -1.1320     0.1220 c3         1 AJU       0.163600
     15 CAH         -5.3240     0.2340     0.8490 c3         1 AJU       0.164600
     16 OAG         -4.4480     1.1200     0.1280 os         1 AJU      -0.423000
     17 CAA         -4.3470     2.4500     0.6710 c3         1 AJU       0.163600
     18 CAB         -3.3960     3.2710    -0.2310 c3         1 AJU       0.163600
     19 OAC         -2.0340     2.8820     0.0350 os         1 AJU      -0.417000
     20 CAD         -1.0840     3.3750    -0.9290 c3         1 AJU       0.163600
     21 CAE          0.3560     3.0940    -0.4410 c3         1 AJU       0.166600
     22 OAF          0.5990     1.6700    -0.4220 os         1 AJU      -0.317100
     23 CAR          1.8500     1.1430    -0.1430 ca         1 AJU       0.097100
     24 CAS          2.9860     1.9710     0.0060 ca         1 AJU      -0.221000
     25 CAT          4.2490     1.4130     0.2630 ca         1 AJU      -0.062000
     26 H2           3.3790    -1.8830     0.3770 ha         1 AJU       0.135000
     27 H3           0.7210    -2.1480    -1.9260 h1         1 AJU       0.036700
     28 H4           1.8820    -2.8220    -0.7750 h1         1 AJU       0.036700
     29 H5           0.0020    -4.2800    -0.6990 h1         1 AJU       0.020700
     30 H6          -0.0190    -3.3490     0.8130 h1         1 AJU       0.020700
     31 H7          -2.4830    -4.6360    -0.4910 h1         1 AJU       0.020700
     32 H8          -2.4530    -3.7120     1.0260 h1         1 AJU       0.020700
     33 H9          -3.9460    -2.8060    -1.5080 h1         1 AJU       0.017200
     34 H10         -4.6960    -3.7170    -0.1770 h1         1 AJU       0.017200
     35 H11         -5.5400    -0.9730    -0.9470 h1         1 AJU       0.018200
     36 H12         -6.1550    -1.7470     0.5310 h1         1 AJU       0.018200
     37 H13         -6.3440     0.6400     0.8690 h1         1 AJU       0.022200
     38 H14         -4.9860     0.0990     1.8840 h1         1 AJU       0.022200
     39 H15         -5.3330     2.9310     0.6800 h1         1 AJU       0.021700
     40 H16         -3.9630     2.4310     1.7000 h1         1 AJU       0.021700
     41 H17         -3.6600     3.0990    -1.2830 h1         1 AJU       0.020200
     42 H18         -3.5300     4.3400    -0.0170 h1         1 AJU       0.020200
     43 H19         -1.2410     2.9030    -1.9070 h1         1 AJU       0.019700
     44 H20         -1.2000     4.4600    -1.0540 h1         1 AJU       0.019700
     45 H21          1.0440     3.5880    -1.1380 h1         1 AJU       0.032200
     46 H22          0.5020     3.5290     0.5560 h1         1 AJU       0.032200
     47 H23          2.9160     3.0510    -0.0760 ha         1 AJU       0.090000
     48 H24          5.1050     2.0750     0.3720 ha         1 AJU       0.126000
@<TRIPOS>BOND
     1     1     2 1   
     2     2     3 1   
     3     2     4 1   
     4     4     5 ar  
     5     4    25 ar  
     6     5     6 ar  
     7     5    26 1   
     8     6     7 1   
     9     6    23 ar  
    10     7     8 1   
    11     8     9 1   
    12     8    27 1   
    13     8    28 1   
    14     9    10 1   
    15     9    29 1   
    16     9    30 1   
    17    10    11 1   
    18    11    12 1   
    19    11    31 1   
    20    11    32 1   
    21    12    13 1   
    22    12    33 1   
    23    12    34 1   
    24    13    14 1   
    25    14    15 1   
    26    14    35 1   
    27    14    36 1   
    28    15    16 1   
    29    15    37 1   
    30    15    38 1   
    31    16    17 1   
    32    17    18 1   
    33    17    39 1   
    34    17    40 1   
    35    18    19 1   
    36    18    41 1   
    37    18    42 1   
    38    19    20 1   
    39    20    21 1   
    40    20    43 1   
    41    20    44 1   
    42    21    22 1   
    43    21    45 1   
    44    21    46 1   
    45    22    23 1   
    46    23    24 ar  
    47    24    25 ar  
    48    24    47 1   
    49    25    48 1   
@<TRIPOS>SUBSTRUCTURE
     1 AJU         1 TEMP              0 ****  ****    0 ROOT
