@<TRIPOS>MOLECULE
AJU
   48    49     1     0     0
SMALL
abcg2


@<TRIPOS>ATOM
      1 OAX          5.6330    -1.8290     1.1540 o          1 AJU      -0.724000
      2 CAW          5.6060    -0.5970     0.9600 c          1 AJU       0.716600
      3 OAY          6.5680     0.1910     1.0400 o          1 AJU      -0.724000
      4 CAV          4.2620     0.0050     0.5830 ca         1 AJU      -0.151600
      5 CAU          3.1310    -0.8000     0.4590 ca         1 AJU      -0.089000
      6 CAQ          1.8990    -0.2750     0.1110 ca         1 AJU       0.039100
      7 OAP          0.7880    -1.0580     0.0350 os         1 AJU      -0.338100
      8 CAO          0.7830    -2.0450    -0.9880 c3         1 AJU       0.166600
      9 CAN         -0.2040    -3.1250    -0.6290 c3         1 AJU       0.155600
     10 OAM         -1.5090    -2.6090    -0.6430 os         1 AJU      -0.420000
     11 CAL         -2.4570    -3.5180    -0.1430 c3         1 AJU       0.164600
     12 CAK         -3.8400    -2.9380    -0.2830 c3         1 AJU       0.164600
     13 OAJ         -3.9380    -1.7570     0.4700 os         1 AJU      -0.415000
     14 CAI         -5.1950    -1.1400     0.3670 c3         1 AJU       0.163600
     15 CAH         -5.1300     0.2420     0.9660 c3         1 AJU       0.164600
     16 OAG         -4.2660     1.0360     0.1950 os         1 AJU      -0.423000
     17 CAA         -4.2350     2.3810     0.5950 c3         1 AJU       0.163600
     18 CAB         -3.2910     3.1420    -0.3010 c3         1 AJU       0.163600
     19 OAC         -1.9670     2.7340    -0.0570 os         1 AJU      -0.417000
     20 CAD         -1.0700     3.2050    -1.0270 c3         1 AJU       0.163600
     21 CAE          0.3490     2.9350    -0.6050 c3         1 AJU       0.166600
     22 OAF          0.5440     1.5380    -0.4870 os         1 AJU      -0.317100
     23 CAR          1.7680     1.1010    -0.1320 ca         1 AJU       0.097100
     24 CAS          2.8880     1.9150     0.0130 ca         1 AJU      -0.221000
     25 CAT          4.1170     1.3670     0.3590 ca         1 AJU      -0.062000
     26 H2           3.2170    -1.8630     0.6520 ha         1 AJU       0.135000
     27 H3           0.5300    -1.5910    -1.9530 h1         1 AJU       0.036700
     28 H4           1.7660    -2.5130    -1.0920 h1         1 AJU       0.036700
     29 H5          -0.0930    -3.9450    -1.3520 h1         1 AJU       0.020700
     30 H6           0.0510    -3.5350     0.3590 h1         1 AJU       0.020700
     31 H7          -2.4330    -4.4680    -0.6970 h1         1 AJU       0.020700
     32 H8          -2.2500    -3.7570     0.9100 h1         1 AJU       0.020700
     33 H9          -4.0580    -2.7440    -1.3430 h1         1 AJU       0.017200
     34 H10         -4.5620    -3.6950     0.0560 h1         1 AJU       0.017200
     35 H11         -5.5140    -1.0680    -0.6830 h1         1 AJU       0.018200
     36 H12         -5.9690    -1.7160     0.8950 h1         1 AJU       0.018200
     37 H13         -6.1480     0.6550     0.9790 h1         1 AJU       0.022200
     38 H14         -4.7950     0.1890     2.0110 h1         1 AJU       0.022200
     39 H15         -5.2300     2.8420     0.5130 h1         1 AJU       0.021700
     40 H16         -3.9240     2.4820     1.6450 h1         1 AJU       0.021700
     41 H17         -3.5700     2.9710    -1.3510 h1         1 AJU       0.020200
     42 H18         -3.4120     4.2170    -0.1110 h1         1 AJU       0.020200
     43 H19         -1.2720     2.7450    -2.0050 h1         1 AJU       0.019700
     44 H20         -1.1610     4.2920    -1.1650 h1         1 AJU       0.019700
     45 H21          1.0110     3.3640    -1.3660 h1         1 AJU       0.032200
     46 H22          0.5680     3.4340     0.3460 h1         1 AJU       0.032200
     47 H23          2.8250     2.9820    -0.1540 ha         1 AJU       0.090000
     48 H24          4.9730     2.0210     0.4560 ha         1 AJU       0.126000
@<TRIPOS>BOND
     1     1     2 1   
     2     2     3 1   
     3     2     4 1   
     4     4     5 ar  
     5     4    25 ar  
     6     5     6 ar  
     7     5    26 1   
     8     6     7 1   
     9     6    23 ar  
    10     7     8 1   
    11     8     9 1   
    12     8    27 1   
    13     8    28 1   
    14     9    10 1   
    15     9    29 1   
    16     9    30 1   
    17    10    11 1   
    18    11    12 1   
    19    11    31 1   
    20    11    32 1   
    21    12    13 1   
    22    12    33 1   
    23    12    34 1   
    24    13    14 1   
    25    14    15 1   
    26    14    35 1   
    27    14    36 1   
    28    15    16 1   
    29    15    37 1   
    30    15    38 1   
    31    16    17 1   
    32    17    18 1   
    33    17    39 1   
    34    17    40 1   
    35    18    19 1   
    36    18    41 1   
    37    18    42 1   
    38    19    20 1   
    39    20    21 1   
    40    20    43 1   
    41    20    44 1   
    42    21    22 1   
    43    21    45 1   
    44    21    46 1   
    45    22    23 1   
    46    23    24 ar  
    47    24    25 ar  
    48    24    47 1   
    49    25    48 1   
@<TRIPOS>SUBSTRUCTURE
     1 AJU         1 TEMP              0 ****  ****    0 ROOT
