@<TRIPOS>MOLECULE
AJV
   18    19     1     0     0
SMALL
No Charge or Current Charge


@<TRIPOS>ATOM
      1 C4           0.1680    -0.5230     0.0450 ca         1 AJV      -0.276000
      2 C5          -0.1960    -1.8790     0.0750 ca         1 AJV       0.006000
      3 C6           1.2000     1.5970     0.0410 c          1 AJV       0.686700
      4 C7           1.4530     0.1250     0.0590 cc         1 AJV       0.150800
      5 N           -0.1860     1.7690     0.0060 nc         1 AJV      -0.425400
      6 C           -1.5700    -2.1940     0.0550 ca         1 AJV      -0.177000
      7 O            2.0300     2.5010     0.0510 o          1 AJV      -0.555100
      8 C1          -2.5420    -1.1660     0.0110 ca         1 AJV      -0.060000
      9 C2          -2.1440     0.1860    -0.0100 ca         1 AJV       0.114000
     10 C3          -0.7710     0.4970     0.0100 ca         1 AJV       0.133000
     11 F           -3.0760     1.1660    -0.0460 f          1 AJV      -0.159000
     12 O1           2.9210    -1.7390    -0.5380 oh         1 AJV      -0.378300
     13 H1           0.5480    -2.6710     0.1140 ha         1 AJV       0.121000
     14 H3          -1.8850    -3.2350     0.0750 ha         1 AJV       0.122000
     15 H4          -3.6000    -1.4160    -0.0040 ha         1 AJV       0.130000
     16 H5           3.0940    -2.3830     0.1910 ho         1 AJV       0.470000
     17 H6           3.5310     0.1980    -0.0490 hn         1 AJV       0.554000
     18 N1           2.7310    -0.4400     0.1050 nu         1 AJV      -0.457700
@<TRIPOS>BOND
     1     1     2 ar  
     2     1     4 2   
     3     1    10 ar  
     4     2     6 ar  
     5     2    13 1   
     6     3     4 1   
     7     3     5 1   
     8     3     7 2   
     9     4    18 1   
    10     5    10 2   
    11     6     8 ar  
    12     6    14 1   
    13     8     9 ar  
    14     8    15 1   
    15     9    10 ar  
    16     9    11 1   
    17    12    16 1   
    18    12    18 1   
    19    17    18 1   
@<TRIPOS>SUBSTRUCTURE
     1 AJV         1 TEMP              0 ****  ****    0 ROOT
