@<TRIPOS>MOLECULE
AJV
   18    19     1     0     0
SMALL
bcc


@<TRIPOS>ATOM
      1 C4           0.1550    -0.6210    -0.0270 ca         1 AJV      -0.276000
      2 C5          -0.2780    -1.9490    -0.0510 ca         1 AJV      -0.012000
      3 C6           1.1510     1.5380     0.0130 c          1 AJV       0.686700
      4 C7           1.4220     0.0060    -0.0280 cc         1 AJV       0.150800
      5 N           -0.1620     1.7260     0.0480 nc         1 AJV      -0.425400
      6 C           -1.6360    -2.1880    -0.0210 ca         1 AJV      -0.195000
      7 O            2.0720     2.3390     0.0130 o          1 AJV      -0.555100
      8 C1          -2.5370    -1.1140     0.0290 ca         1 AJV      -0.078000
      9 C2          -2.0940     0.1890     0.0510 ca         1 AJV       0.078900
     10 C3          -0.7350     0.4870     0.0250 ca         1 AJV       0.133000
     11 F           -2.9810     1.1950     0.1000 f          1 AJV      -0.123900
     12 O1           2.8800    -1.7480    -0.1870 oh         1 AJV      -0.339300
     13 H1           0.4260    -2.7680    -0.0930 ha         1 AJV       0.139000
     14 H3          -2.0170    -3.1980    -0.0370 ha         1 AJV       0.140000
     15 H4          -3.6020    -1.3060     0.0520 ha         1 AJV       0.148000
     16 H5           3.6070    -1.9520     0.4210 ho         1 AJV       0.431000
     17 H6           3.4160     0.1970    -0.0670 hn         1 AJV       0.498800
     18 N1           2.6190    -0.4390    -0.0500 nu         1 AJV      -0.402500
@<TRIPOS>BOND
     1     1     2 ar  
     2     1     4 2   
     3     1    10 ar  
     4     2     6 ar  
     5     2    13 1   
     6     3     4 1   
     7     3     5 1   
     8     3     7 2   
     9     4    18 1   
    10     5    10 2   
    11     6     8 ar  
    12     6    14 1   
    13     8     9 ar  
    14     8    15 1   
    15     9    10 ar  
    16     9    11 1   
    17    12    16 1   
    18    12    18 1   
    19    17    18 1   
@<TRIPOS>SUBSTRUCTURE
     1 AJV         1 TEMP              0 ****  ****    0 ROOT
