@<TRIPOS>MOLECULE
AJW
   57    60     1     0     0
SMALL
bcc


@<TRIPOS>ATOM
      1 N1          24.1770     7.4060     2.9430 nh         1 AJW      -0.672000
      2 N3          15.3680     1.0140     3.3760 ns         1 AJW      -0.479100
      3 C4          24.4020     9.7430     3.6230 ca         1 AJW      -0.207000
      4 C5          25.1340    10.7350     4.2570 ca         1 AJW      -0.086000
      5 C6          26.3740    10.4710     4.8220 ca         1 AJW      -0.181000
      6 C7          24.8910     6.2070     2.5340 c6         1 AJW       0.220800
      7 C8          24.0100     5.3210     1.6710 c6         1 AJW       0.161800
      8 C10         22.9360     7.6460     2.2430 c6         1 AJW       0.220800
      9 C13         21.6880     1.5550     1.5680 c3         1 AJW      -0.082400
     10 C15         18.4030    -0.0270     1.5810 ca         1 AJW       0.181100
     11 C17         16.6330    -1.5910     1.1410 ca         1 AJW      -0.056000
     12 C20         17.5450     0.7040     2.3970 ca         1 AJW      -0.268000
     13 C21         14.3130    -1.2450     2.1400 c6         1 AJW      -0.014100
     14 C22         13.8620    -0.8730     3.5460 c6         1 AJW      -0.161400
     15 C1          26.8690     9.1770     4.7340 ca         1 AJW      -0.086000
     16 C12         22.4220     2.7120     2.2400 c3         1 AJW      -0.075400
     17 C14         20.2290     1.4620     1.9700 c3         1 AJW       0.140400
     18 C16         17.9420    -1.1850     0.9520 ca         1 AJW      -0.191000
     19 C18         15.7530    -0.8750     1.9420 ca         1 AJW      -0.167300
     20 C19         16.2310     0.2720     2.5690 ca         1 AJW       0.119600
     21 C2          26.1510     8.1730     4.1050 ca         1 AJW      -0.207000
     22 C23         14.1980     0.5540     3.9000 c          1 AJW       0.713500
     23 C3          24.8860     8.4240     3.5390 ca         1 AJW       0.196600
     24 C9          22.0020     6.4360     2.3160 c6         1 AJW       0.161800
     25 N2          22.7260     5.1730     2.3180 n3         1 AJW      -0.725600
     26 O1          19.6870     0.3040     1.3550 os         1 AJW      -0.325900
     27 O2A         13.5090     1.2490     4.6240 o          1 AJW      -0.616500
     28 H2          23.4530    10.0170     3.1860 ha         1 AJW       0.126500
     29 H3          24.7220    11.7360     4.2970 ha         1 AJW       0.124000
     30 H4          26.9400    11.2520     5.3110 ha         1 AJW       0.131000
     31 H5          25.1950     5.6340     3.4160 h1         1 AJW       0.042950
     32 H6          25.8050     6.4600     1.9820 h1         1 AJW       0.042950
     33 H7          23.9270     5.7180     0.6460 h1         1 AJW       0.037950
     34 H8          24.5060     4.3540     1.5830 h1         1 AJW       0.037950
     35 H9          23.1190     7.9220     1.1960 h1         1 AJW       0.042950
     36 H10         22.4060     8.4840     2.6900 h1         1 AJW       0.042950
     37 H11         22.1840     0.6190     1.8350 hc         1 AJW       0.056700
     38 H12         21.7630     1.6540     0.4810 hc         1 AJW       0.056700
     39 H13         16.2820    -2.4900     0.6470 ha         1 AJW       0.134000
     40 H14         17.8740     1.5990     2.9100 ha         1 AJW       0.139000
     41 H15         13.6890    -0.7230     1.4070 hc         1 AJW       0.055700
     42 H16         14.1640    -2.3120     1.9710 hc         1 AJW       0.055700
     43 H17         12.7900    -1.0190     3.6750 hc         1 AJW       0.075700
     44 H18         14.3630    -1.5160     4.2790 hc         1 AJW       0.075700
     45 H19         27.8360     8.9360     5.1590 ha         1 AJW       0.124000
     46 H22         22.3470     2.6260     3.3270 hc         1 AJW       0.052200
     47 H23         23.4820     2.6130     1.9980 hc         1 AJW       0.052200
     48 H24         19.6720     2.3510     1.6520 h1         1 AJW       0.035700
     49 H25         20.1450     1.3930     3.0610 h1         1 AJW       0.035700
     50 H26         18.6120    -1.7560     0.3220 ha         1 AJW       0.149000
     51 H27         26.5830     7.1820     4.0670 ha         1 AJW       0.126500
     52 H28         21.3170     6.5140     1.4590 h1         1 AJW       0.037950
     53 H29         21.3850     6.4920     3.2180 h1         1 AJW       0.037950
     54 C11         21.9140     4.0840     1.8120 c3         1 AJW       0.174800
     55 H1          15.6640     1.9350     3.6690 hn         1 AJW       0.323500
     56 H20         21.8230     4.1240     0.7120 h1         1 AJW       0.029200
     57 H21         20.9020     4.2290     2.2020 h1         1 AJW       0.029200
@<TRIPOS>BOND
     1     1     6 1   
     2     1     8 1   
     3     1    23 1   
     4     2    20 1   
     5     2    22 1   
     6     2    55 1   
     7     3     4 ar  
     8     3    23 ar  
     9     3    28 1   
    10     4     5 ar  
    11     4    29 1   
    12     5    15 ar  
    13     5    30 1   
    14     6     7 1   
    15     6    31 1   
    16     6    32 1   
    17     7    25 1   
    18     7    33 1   
    19     7    34 1   
    20     8    24 1   
    21     8    35 1   
    22     8    36 1   
    23     9    16 1   
    24     9    17 1   
    25     9    37 1   
    26     9    38 1   
    27    10    12 ar  
    28    10    18 ar  
    29    10    26 1   
    30    11    18 ar  
    31    11    19 ar  
    32    11    39 1   
    33    12    20 ar  
    34    12    40 1   
    35    13    14 1   
    36    13    19 1   
    37    13    41 1   
    38    13    42 1   
    39    14    22 1   
    40    14    43 1   
    41    14    44 1   
    42    15    21 ar  
    43    15    45 1   
    44    16    46 1   
    45    16    47 1   
    46    16    54 1   
    47    17    26 1   
    48    17    48 1   
    49    17    49 1   
    50    18    50 1   
    51    19    20 ar  
    52    21    23 ar  
    53    21    51 1   
    54    22    27 2   
    55    24    25 1   
    56    24    52 1   
    57    24    53 1   
    58    25    54 1   
    59    54    56 1   
    60    54    57 1   
@<TRIPOS>SUBSTRUCTURE
     1 AJW         1 TEMP              0 ****  ****    0 ROOT
