@<TRIPOS>MOLECULE
AJW
   57    60     1     0     0
SMALL
No Charge or Current Charge


@<TRIPOS>ATOM
      1 N1          24.3550     7.5130     3.0910 nh         1 AJW      -0.810400
      2 N3          15.3160     0.7950     3.5630 ns         1 AJW      -0.153000
      3 C4          24.6270     9.9340     2.9410 ca         1 AJW      -0.189000
      4 C5          25.3310    11.1130     3.2430 ca         1 AJW      -0.068000
      5 C6          26.5000    11.0500     4.0180 ca         1 AJW      -0.163000
      6 C7          25.0210     6.1710     3.0570 c6         1 AJW       0.220800
      7 C8          24.2250     5.1190     2.2150 c6         1 AJW       0.161800
      8 C10         22.8990     7.4210     3.4340 c6         1 AJW       0.220800
      9 C13         21.6250     1.4790     1.3130 c3         1 AJW      -0.082400
     10 C15         18.2300    -0.0630     1.4020 ca         1 AJW       0.181100
     11 C17         16.3560    -1.5280     0.8600 ca         1 AJW      -0.038000
     12 C20         17.4390     0.5810     2.3780 ca         1 AJW      -0.250000
     13 C21         14.1070    -1.3020     2.0470 c6         1 AJW      -0.014100
     14 C22         13.6050    -0.9810     3.4790 c6         1 AJW      -0.161400
     15 C1          26.9640     9.8120     4.4890 ca         1 AJW      -0.068000
     16 C12         22.5000     2.5290     2.0410 c3         1 AJW      -0.075400
     17 C14         20.1870     1.3640     1.8600 c3         1 AJW       0.163600
     18 C16         17.6830    -1.1150     0.6510 ca         1 AJW      -0.173000
     19 C18         15.5690    -0.8910     1.8360 ca         1 AJW      -0.167300
     20 C19         16.1160     0.1620     2.5920 ca         1 AJW       0.027000
     21 C2          26.2570     8.6350     4.1840 ca         1 AJW      -0.189000
     22 C23         14.0720     0.3880     3.9990 c          1 AJW       0.571000
     23 C3          25.0800     8.6850     3.4090 ca         1 AJW       0.335000
     24 C9          22.1460     6.3480     2.5800 c6         1 AJW       0.161800
     25 N2          22.7880     4.9970     2.6290 n3         1 AJW      -0.725600
     26 O1          19.5360     0.2990     1.1480 os         1 AJW      -0.349100
     27 O2A         13.3760     1.0780     4.7330 o          1 AJW      -0.541000
     28 H2          23.7320     9.9910     2.3300 ha         1 AJW       0.108500
     29 H3          24.9730    12.0710     2.8730 ha         1 AJW       0.106000
     30 H4          27.0470    11.9610     4.2520 ha         1 AJW       0.113000
     31 H5          25.1320     5.7870     4.0820 h1         1 AJW       0.042950
     32 H6          26.0300     6.2600     2.6290 h1         1 AJW       0.042950
     33 H7          24.2860     5.4050     1.1550 h1         1 AJW       0.037950
     34 H8          24.7430     4.1550     2.3160 h1         1 AJW       0.037950
     35 H9          22.4000     8.3890     3.2860 h1         1 AJW       0.042950
     36 H10         22.7890     7.1620     4.4970 h1         1 AJW       0.042950
     37 H11         22.1110     0.5000     1.4010 hc         1 AJW       0.056700
     38 H12         21.5860     1.7190     0.2430 hc         1 AJW       0.056700
     39 H13         15.9420    -2.3370     0.2610 ha         1 AJW       0.116000
     40 H14         17.8350     1.3980     2.9740 ha         1 AJW       0.121000
     41 H15         13.4820    -0.7680     1.3170 hc         1 AJW       0.055700
     42 H16         13.9740    -2.3730     1.8400 hc         1 AJW       0.055700
     43 H17         12.5200    -1.0940     3.6000 hc         1 AJW       0.075700
     44 H18         14.0910    -1.7160     4.1340 hc         1 AJW       0.075700
     45 H19         27.8690     9.7630     5.0910 ha         1 AJW       0.106000
     46 H22         22.5310     2.2920     3.1120 hc         1 AJW       0.052200
     47 H23         23.5240     2.4300     1.6640 hc         1 AJW       0.052200
     48 H24         19.6520     2.3100     1.7090 h1         1 AJW       0.035700
     49 H25         20.2210     1.1450     2.9360 h1         1 AJW       0.035700
     50 H26         18.2900    -1.6090    -0.1030 ha         1 AJW       0.131000
     51 H27         26.6250     7.6890     4.5660 ha         1 AJW       0.108500
     52 H28         22.1020     6.7040     1.5400 h1         1 AJW       0.037950
     53 H29         21.1090     6.2880     2.9390 h1         1 AJW       0.037950
     54 C11         22.0210     3.9900     1.8570 c3         1 AJW       0.174800
     55 H1          15.6600     1.6720     3.9300 hn         1 AJW       0.157000
     56 H20         22.0500     4.2370     0.7860 h1         1 AJW       0.029200
     57 H21         20.9690     4.0410     2.1670 h1         1 AJW       0.029200
@<TRIPOS>BOND
     1     1     6 1   
     2     1     8 1   
     3     1    23 1   
     4     2    20 1   
     5     2    22 1   
     6     2    55 1   
     7     3     4 ar  
     8     3    23 ar  
     9     3    28 1   
    10     4     5 ar  
    11     4    29 1   
    12     5    15 ar  
    13     5    30 1   
    14     6     7 1   
    15     6    31 1   
    16     6    32 1   
    17     7    25 1   
    18     7    33 1   
    19     7    34 1   
    20     8    24 1   
    21     8    35 1   
    22     8    36 1   
    23     9    16 1   
    24     9    17 1   
    25     9    37 1   
    26     9    38 1   
    27    10    12 ar  
    28    10    18 ar  
    29    10    26 1   
    30    11    18 ar  
    31    11    19 ar  
    32    11    39 1   
    33    12    20 ar  
    34    12    40 1   
    35    13    14 1   
    36    13    19 1   
    37    13    41 1   
    38    13    42 1   
    39    14    22 1   
    40    14    43 1   
    41    14    44 1   
    42    15    21 ar  
    43    15    45 1   
    44    16    46 1   
    45    16    47 1   
    46    16    54 1   
    47    17    26 1   
    48    17    48 1   
    49    17    49 1   
    50    18    50 1   
    51    19    20 ar  
    52    21    23 ar  
    53    21    51 1   
    54    22    27 2   
    55    24    25 1   
    56    24    52 1   
    57    24    53 1   
    58    25    54 1   
    59    54    56 1   
    60    54    57 1   
@<TRIPOS>SUBSTRUCTURE
     1 AJW         1 TEMP              0 ****  ****    0 ROOT
