@<TRIPOS>MOLECULE
AJX
   54    57     1     0     0
SMALL
bcc


@<TRIPOS>ATOM
      1 C4          -3.0730     1.0620     0.4740 ca         1 AJX      -0.183000
      2 C14          1.4520     0.6250     0.2560 c3         1 AJX      -0.076400
      3 C5          -2.3600    -0.1370     0.3590 ca         1 AJX      -0.099300
      4 C6          -2.9790    -1.2520    -0.1800 ca         1 AJX      -0.055300
      5 C11         -4.5530     3.4440     0.6580 c3         1 AJX       0.122700
      6 C7          -0.9160    -0.1660     0.8110 c6         1 AJX       0.170000
      7 C8          -0.7590    -2.4060    -0.1810 c6         1 AJX       0.093000
      8 C9          -2.2640    -2.5720    -0.3040 c6         1 AJX      -0.050100
      9 C10         -6.9790    -0.8980    -1.4420 c3         1 AJX       0.121700
     10 C13         -0.0190     0.6510    -0.1290 c3         1 AJX      -0.088400
     11 N1          -0.4610    -1.5370     0.9380 n          1 AJX      -0.481800
     12 N2           5.7770     2.0650     0.4790 na         1 AJX      -0.174400
     13 C3          -4.3870     1.1600     0.0630 ca         1 AJX       0.111100
     14 C1          -4.3130    -1.1550    -0.5970 ca         1 AJX      -0.191000
     15 C15          2.2970     1.5330    -0.6390 c3         1 AJX       0.002800
     16 C16          3.7510     1.4990    -0.3060 cc         1 AJX      -0.139400
     17 C17          4.4780     2.4680     0.3260 cd         1 AJX      -0.110100
     18 C18          5.9260     0.8190    -0.0520 ca         1 AJX      -0.046200
     19 C19          4.6660     0.4240    -0.5580 ca         1 AJX      -0.096800
     20 C2          -5.0220     0.0240    -0.4850 ca         1 AJX       0.121100
     21 C20          7.0520     0.0010    -0.1430 ca         1 AJX      -0.148000
     22 C21          6.9000    -1.2280    -0.7540 ca         1 AJX      -0.108000
     23 C22          5.6580    -1.6400    -1.2670 ca         1 AJX      -0.159000
     24 C23          4.5450    -0.8270    -1.1740 ca         1 AJX      -0.077000
     25 O1          -6.3040     0.1980    -0.8590 os         1 AJX      -0.296900
     26 O2          -5.1450     2.2710     0.1420 os         1 AJX      -0.296900
     27 O3           0.4570    -3.1350     2.2810 o          1 AJX      -0.603100
     28 H1          -2.5750     1.9210     0.9050 ha         1 AJX       0.135000
     29 H2           1.5710     0.9390     1.2980 hc         1 AJX       0.047200
     30 H3           1.8330    -0.3980     0.1990 hc         1 AJX       0.047200
     31 H4          -4.2300     3.3200     1.6950 h1         1 AJX       0.039033
     32 H5          -3.6950     3.7660     0.0610 h1         1 AJX       0.039033
     33 H6          -5.3150     4.2180     0.6190 h1         1 AJX       0.039033
     34 H7          -0.8560     0.2870     1.8070 h1         1 AJX       0.058700
     35 H8          -0.2680    -3.3650    -0.0350 h1         1 AJX       0.062200
     36 H9          -0.3480    -1.9670    -1.0940 h1         1 AJX       0.062200
     37 H10         -2.6200    -3.2560     0.4730 hc         1 AJX       0.058200
     38 H11         -2.5020    -3.0410    -1.2610 hc         1 AJX       0.058200
     39 H12         -6.4960    -1.2320    -2.3640 h1         1 AJX       0.040367
     40 H13         -7.0520    -1.7470    -0.7570 h1         1 AJX       0.040367
     41 H14         -7.9830    -0.5520    -1.6790 h1         1 AJX       0.040367
     42 H15          0.1810    -1.2020     2.8360 h5         1 AJX       0.006200
     43 H16         -0.3800     1.6840    -0.1190 hc         1 AJX       0.047700
     44 H17         -0.1470     0.3020    -1.1580 hc         1 AJX       0.047700
     45 H18          6.5020     2.6110     0.9120 hn         1 AJX       0.298700
     46 H19         -4.7810    -2.0360    -1.0160 ha         1 AJX       0.138000
     47 H20          2.1480     1.2390    -1.6840 hc         1 AJX       0.041200
     48 H21          1.9300     2.5600    -0.5590 hc         1 AJX       0.041200
     49 H22          4.1610     3.4370     0.6810 h4         1 AJX       0.159000
     50 H23          8.0110     0.3180     0.2470 ha         1 AJX       0.130000
     51 H24          7.7550    -1.8870    -0.8420 ha         1 AJX       0.127000
     52 H25          5.5770    -2.6100    -1.7430 ha         1 AJX       0.129000
     53 H26          3.5940    -1.1560    -1.5750 ha         1 AJX       0.131000
     54 C12          0.0870    -1.9920     2.0740 c          1 AJX       0.674900
@<TRIPOS>BOND
     1     1     3 ar  
     2     1    13 ar  
     3     1    28 1   
     4     2    10 1   
     5     2    15 1   
     6     2    29 1   
     7     2    30 1   
     8     3     4 ar  
     9     3     6 1   
    10     4     8 1   
    11     4    14 ar  
    12     5    26 1   
    13     5    31 1   
    14     5    32 1   
    15     5    33 1   
    16     6    10 1   
    17     6    11 1   
    18     6    34 1   
    19     7     8 1   
    20     7    11 1   
    21     7    35 1   
    22     7    36 1   
    23     8    37 1   
    24     8    38 1   
    25     9    25 1   
    26     9    39 1   
    27     9    40 1   
    28     9    41 1   
    29    10    43 1   
    30    10    44 1   
    31    11    54 1   
    32    12    17 1   
    33    12    18 1   
    34    12    45 1   
    35    13    20 ar  
    36    13    26 1   
    37    14    20 ar  
    38    14    46 1   
    39    15    16 1   
    40    15    47 1   
    41    15    48 1   
    42    16    17 2   
    43    16    19 1   
    44    17    49 1   
    45    18    19 ar  
    46    18    21 ar  
    47    19    24 ar  
    48    20    25 1   
    49    21    22 ar  
    50    21    50 1   
    51    22    23 ar  
    52    22    51 1   
    53    23    24 ar  
    54    23    52 1   
    55    24    53 1   
    56    27    54 2   
    57    42    54 1   
@<TRIPOS>SUBSTRUCTURE
     1 AJX         1 TEMP              0 ****  ****    0 ROOT
