@<TRIPOS>MOLECULE
AJX
   54    57     1     0     0
SMALL
No Charge or Current Charge


@<TRIPOS>ATOM
      1 C4          -3.0620     1.0570     0.4530 ca         1 AJX      -0.165000
      2 C14          1.4950     0.6370     0.2130 c3         1 AJX      -0.076400
      3 C5          -2.3800    -0.1690     0.3180 ca         1 AJX      -0.099300
      4 C6          -3.0650    -1.2910    -0.2060 ca         1 AJX      -0.055300
      5 C11         -4.4960     3.5710     0.6980 c3         1 AJX       0.145900
      6 C7          -0.9020    -0.2610     0.7530 c6         1 AJX       0.170000
      7 C8          -0.8360    -2.5350    -0.2720 c6         1 AJX       0.093000
      8 C9          -2.3700    -2.6500    -0.3270 c6         1 AJX      -0.050100
      9 C10         -7.1900    -0.8880    -1.3880 c3         1 AJX       0.144900
     10 C13          0.0010     0.5960    -0.1850 c3         1 AJX      -0.088400
     11 N1          -0.4320    -1.6620     0.8510 n          1 AJX      -0.414800
     12 N2           5.8490     2.1920     0.4920 na         1 AJX      -0.224700
     13 C3          -4.4150     1.1790     0.0600 ca         1 AJX       0.111100
     14 C1          -4.4120    -1.1750    -0.5920 ca         1 AJX      -0.173000
     15 C15          2.3450     1.5370    -0.7080 c3         1 AJX       0.002800
     16 C16          3.8020     1.5510    -0.3250 cc         1 AJX      -0.139400
     17 C17          4.5040     2.5850     0.2870 cd         1 AJX      -0.160100
     18 C18          5.9490     0.9070    -0.0060 ca         1 AJX      -0.046200
     19 C19          4.7490     0.4860    -0.5050 ca         1 AJX      -0.096800
     20 C2          -5.0930     0.0560    -0.4670 ca         1 AJX       0.121100
     21 C20          7.0840     0.0830    -0.0380 ca         1 AJX      -0.130000
     22 C21          6.9570    -1.2040    -0.6030 ca         1 AJX      -0.090000
     23 C22          5.7130    -1.6360    -1.1220 ca         1 AJX      -0.141000
     24 C23          4.5880    -0.7850    -1.0770 ca         1 AJX      -0.059000
     25 O1          -6.4200     0.1980    -0.8430 os         1 AJX      -0.320100
     26 O2          -5.1040     2.3750     0.1790 os         1 AJX      -0.320100
     27 O3           0.6200    -3.2950     2.1080 o          1 AJX      -0.603100
     28 H1          -2.5270     1.9060     0.8670 ha         1 AJX       0.117000
     29 H2           1.5850     0.9980     1.2460 hc         1 AJX       0.047200
     30 H3           1.9050    -0.3800     0.1940 hc         1 AJX       0.047200
     31 H4          -4.1540     3.4180     1.7300 h1         1 AJX       0.039033
     32 H5          -3.6400     3.8720     0.0820 h1         1 AJX       0.039033
     33 H6          -5.2210     4.3950     0.7000 h1         1 AJX       0.039033
     34 H7          -0.8380     0.1890     1.7540 h1         1 AJX       0.058700
     35 H8          -0.3910    -3.5360    -0.1780 h1         1 AJX       0.062200
     36 H9          -0.4680    -2.1040    -1.2140 h1         1 AJX       0.062200
     37 H10         -2.7100    -3.2960     0.4930 hc         1 AJX       0.058200
     38 H11         -2.6640    -3.1490    -1.2600 hc         1 AJX       0.058200
     39 H12         -6.7380    -1.2580    -2.3170 h1         1 AJX       0.040367
     40 H13         -7.2570    -1.7170    -0.6720 h1         1 AJX       0.040367
     41 H14         -8.2090    -0.5530    -1.6160 h1         1 AJX       0.040367
     42 H15          0.4470    -1.3410     2.7330 h5         1 AJX       0.006200
     43 H16         -0.3720     1.6270    -0.2060 hc         1 AJX       0.047700
     44 H17         -0.0810     0.2260    -1.2140 hc         1 AJX       0.047700
     45 H18          6.5900     2.7410     0.9190 hn         1 AJX       0.349000
     46 H19         -4.9150    -2.0540    -0.9840 ha         1 AJX       0.120000
     47 H20          2.2450     1.1900    -1.7440 hc         1 AJX       0.041200
     48 H21          1.9470     2.5580    -0.6830 hc         1 AJX       0.041200
     49 H22          4.1430     3.5640     0.5940 h4         1 AJX       0.209000
     50 H23          8.0360     0.4250     0.3620 ha         1 AJX       0.112000
     51 H24          7.8200    -1.8650    -0.6410 ha         1 AJX       0.109000
     52 H25          5.6230    -2.6280    -1.5580 ha         1 AJX       0.111000
     53 H26          3.6290    -1.1060    -1.4760 ha         1 AJX       0.113000
     54 C12          0.2610    -2.1300     1.9800 c          1 AJX       0.607900
@<TRIPOS>BOND
     1     1     3 ar  
     2     1    13 ar  
     3     1    28 1   
     4     2    10 1   
     5     2    15 1   
     6     2    29 1   
     7     2    30 1   
     8     3     4 ar  
     9     3     6 1   
    10     4     8 1   
    11     4    14 ar  
    12     5    26 1   
    13     5    31 1   
    14     5    32 1   
    15     5    33 1   
    16     6    10 1   
    17     6    11 1   
    18     6    34 1   
    19     7     8 1   
    20     7    11 1   
    21     7    35 1   
    22     7    36 1   
    23     8    37 1   
    24     8    38 1   
    25     9    25 1   
    26     9    39 1   
    27     9    40 1   
    28     9    41 1   
    29    10    43 1   
    30    10    44 1   
    31    11    54 1   
    32    12    17 1   
    33    12    18 1   
    34    12    45 1   
    35    13    20 ar  
    36    13    26 1   
    37    14    20 ar  
    38    14    46 1   
    39    15    16 1   
    40    15    47 1   
    41    15    48 1   
    42    16    17 2   
    43    16    19 1   
    44    17    49 1   
    45    18    19 ar  
    46    18    21 ar  
    47    19    24 ar  
    48    20    25 1   
    49    21    22 ar  
    50    21    50 1   
    51    22    23 ar  
    52    22    51 1   
    53    23    24 ar  
    54    23    52 1   
    55    24    53 1   
    56    27    54 2   
    57    42    54 1   
@<TRIPOS>SUBSTRUCTURE
     1 AJX         1 TEMP              0 ****  ****    0 ROOT
