@<TRIPOS>MOLECULE
AJZ
   37    40     1     0     0
SMALL
abcg2


@<TRIPOS>ATOM
      1 N1          -0.1380    -0.5630     0.1080 nb         1 AJZ      -0.278000
      2 C2          -1.1860     0.2610     0.0960 cp         1 AJZ       0.237500
      3 N3          -1.1340     1.5750     0.1320 nb         1 AJZ      -0.185000
      4 C4           0.0990     2.1000     0.1400 ca         1 AJZ       0.160800
      5 C5           1.2610     1.3210     0.1550 ca         1 AJZ      -0.328000
      6 C6           1.0990    -0.0870     0.1500 ca         1 AJZ       0.434900
      7 CAB         -3.9120    -2.3330    -0.0990 ca         1 AJZ      -0.094000
      8 CAC          1.7100     3.7470     0.0260 cc         1 AJZ      -0.146400
      9 CAD         -5.0540    -1.5490    -0.0700 ca         1 AJZ      -0.128000
     10 CAE         -2.6490    -1.7600    -0.0410 ca         1 AJZ      -0.104000
     11 CAF          0.3830     3.5010     0.0820 cd         1 AJZ      -0.294800
     12 CAG         -3.6700     0.4180     0.0720 ca         1 AJZ      -0.164000
     13 CAH          3.0070    -3.0890    -0.6780 c6         1 AJZ       0.142600
     14 CAI          4.4930    -1.5210     0.1680 c6         1 AJZ       0.142600
     15 CAJ          1.8200    -2.3980    -0.0330 c6         1 AJZ       0.178300
     16 CAK          3.3670    -0.7740     0.8550 c6         1 AJZ       0.178300
     17 OAN          4.2010    -2.8930     0.0470 os         1 AJZ      -0.443000
     18 SAO          2.6710     2.3180     0.0530 ss         1 AJZ       0.092400
     19 CAP         -4.9310    -0.1640     0.0180 ca         1 AJZ       0.124100
     20 CAQ         -2.5240    -0.3750     0.0440 cp         1 AJZ      -0.108500
     21 NAV          2.1190    -0.9820     0.1340 nh         1 AJZ      -0.771300
     22 HOAA        -5.8590     1.5060     0.1010 ho         1 AJZ       0.466000
     23 HAB         -4.0100    -3.4080    -0.1660 ha         1 AJZ       0.115000
     24 HAC          2.2000     4.7070    -0.0300 h4         1 AJZ       0.221000
     25 HAD         -6.0370    -2.0020    -0.1160 ha         1 AJZ       0.128000
     26 HAE         -1.7670    -2.3840    -0.0610 ha         1 AJZ       0.132000
     27 HAF         -0.3820     4.2630     0.0720 ha         1 AJZ       0.220000
     28 HAG         -3.5720     1.4960     0.1330 ha         1 AJZ       0.136000
     29 HAH          2.8210    -4.1630    -0.7170 h1         1 AJZ       0.056200
     30 HAHA         3.1190    -2.7270    -1.7090 h1         1 AJZ       0.056200
     31 HAI          4.6790    -1.0730    -0.8180 h1         1 AJZ       0.056200
     32 HAIA         5.4040    -1.4290     0.7610 h1         1 AJZ       0.056200
     33 HAJ          0.9530    -2.5180    -0.6770 h1         1 AJZ       0.061450
     34 HAJA         1.5820    -2.8580     0.9340 h1         1 AJZ       0.061450
     35 HAK          3.2540    -1.1300     1.8860 h1         1 AJZ       0.061450
     36 HAKA         3.6370     0.2770     0.9160 h1         1 AJZ       0.061450
     37 OAA         -6.0640     0.5660     0.0450 oh         1 AJZ      -0.537100
@<TRIPOS>BOND
     1     1     2 ar  
     2     1     6 ar  
     3     2     3 ar  
     4     2    20 1   
     5     3     4 ar  
     6     4     5 ar  
     7     4    11 1   
     8     5     6 ar  
     9     5    18 1   
    10     6    21 1   
    11     7     9 ar  
    12     7    10 ar  
    13     7    23 1   
    14     8    11 2   
    15     8    18 1   
    16     8    24 1   
    17     9    19 ar  
    18     9    25 1   
    19    10    20 ar  
    20    10    26 1   
    21    11    27 1   
    22    12    19 ar  
    23    12    20 ar  
    24    12    28 1   
    25    13    15 1   
    26    13    17 1   
    27    13    29 1   
    28    13    30 1   
    29    14    16 1   
    30    14    17 1   
    31    14    31 1   
    32    14    32 1   
    33    15    21 1   
    34    15    33 1   
    35    15    34 1   
    36    16    21 1   
    37    16    35 1   
    38    16    36 1   
    39    19    37 1   
    40    22    37 1   
@<TRIPOS>SUBSTRUCTURE
     1 AJZ         1 TEMP              0 ****  ****    0 ROOT
