@<TRIPOS>MOLECULE
AJZ
   37    40     1     0     0
SMALL
No Charge or Current Charge


@<TRIPOS>ATOM
      1 N1          -0.1650    -0.5980     0.0400 nb         1 AJZ      -0.278000
      2 C2          -1.2290     0.2440     0.0540 cp         1 AJZ       0.237500
      3 N3          -1.1370     1.5950     0.0070 nb         1 AJZ      -0.185000
      4 C4           0.1040     2.0990    -0.0580 ca         1 AJZ       0.160800
      5 C5           1.2340     1.3240    -0.0750 ca         1 AJZ      -0.328000
      6 C6           1.0760    -0.0670    -0.0170 ca         1 AJZ       0.434900
      7 CAB         -4.0750    -2.3510     0.2400 ca         1 AJZ      -0.094000
      8 CAC          1.7760     3.7720    -0.2430 cc         1 AJZ      -0.146400
      9 CAD         -5.2110    -1.5290     0.2550 ca         1 AJZ      -0.128000
     10 CAE         -2.7930    -1.7800     0.1760 ca         1 AJZ      -0.104000
     11 CAF          0.4230     3.4960    -0.1480 cd         1 AJZ      -0.294800
     12 CAG         -3.7840     0.4380     0.1400 ca         1 AJZ      -0.164000
     13 CAH          3.4110    -2.9610    -0.9660 c6         1 AJZ       0.142600
     14 CAI          4.4900    -1.6260     0.7220 c6         1 AJZ       0.142600
     15 CAJ          2.0270    -2.3160    -0.6590 c6         1 AJZ       0.178300
     16 CAK          3.1480    -0.9330     1.1000 c6         1 AJZ       0.178300
     17 OAN          4.2520    -2.9590     0.2130 os         1 AJZ      -0.443000
     18 SAO          2.7450     2.2690    -0.2300 ss         1 AJZ       0.092400
     19 CAP         -5.0650    -0.1360     0.2040 ca         1 AJZ       0.124100
     20 CAQ         -2.6090    -0.3690     0.1240 cp         1 AJZ      -0.108500
     21 NAV          2.1680    -0.9580    -0.0340 nh         1 AJZ      -0.771300
     22 HOAA        -5.8900     1.5950     0.1780 ho         1 AJZ       0.466000
     23 HAB         -4.1870    -3.4330     0.2790 ha         1 AJZ       0.115000
     24 HAC          2.2810     4.7300    -0.3230 h4         1 AJZ       0.221000
     25 HAD         -6.2030    -1.9710     0.3050 ha         1 AJZ       0.128000
     26 HAE         -1.9350    -2.4490     0.1670 ha         1 AJZ       0.132000
     27 HAF         -0.3380     4.2730    -0.1440 ha         1 AJZ       0.220000
     28 HAG         -3.7000     1.5210     0.1020 ha         1 AJZ       0.136000
     29 HAH          3.2730    -3.9960    -1.3090 h1         1 AJZ       0.056200
     30 HAHA         3.9130    -2.4010    -1.7680 h1         1 AJZ       0.056200
     31 HAI          5.0140    -1.0330    -0.0420 h1         1 AJZ       0.056200
     32 HAIA         5.1390    -1.6880     1.6070 h1         1 AJZ       0.056200
     33 HAJ          1.4620    -2.2460    -1.6000 h1         1 AJZ       0.061450
     34 HAJA         1.4660    -2.9850     0.0110 h1         1 AJZ       0.061450
     35 HAK          2.7200    -1.4490     1.9720 h1         1 AJZ       0.061450
     36 HAKA         3.3640     0.0980     1.4130 h1         1 AJZ       0.061450
     37 OAA         -6.1750     0.6570     0.2190 oh         1 AJZ      -0.537100
@<TRIPOS>BOND
     1     1     2 ar  
     2     1     6 ar  
     3     2     3 ar  
     4     2    20 1   
     5     3     4 ar  
     6     4     5 ar  
     7     4    11 1   
     8     5     6 ar  
     9     5    18 1   
    10     6    21 1   
    11     7     9 ar  
    12     7    10 ar  
    13     7    23 1   
    14     8    11 2   
    15     8    18 1   
    16     8    24 1   
    17     9    19 ar  
    18     9    25 1   
    19    10    20 ar  
    20    10    26 1   
    21    11    27 1   
    22    12    19 ar  
    23    12    20 ar  
    24    12    28 1   
    25    13    15 1   
    26    13    17 1   
    27    13    29 1   
    28    13    30 1   
    29    14    16 1   
    30    14    17 1   
    31    14    31 1   
    32    14    32 1   
    33    15    21 1   
    34    15    33 1   
    35    15    34 1   
    36    16    21 1   
    37    16    35 1   
    38    16    36 1   
    39    19    37 1   
    40    22    37 1   
@<TRIPOS>SUBSTRUCTURE
     1 AJZ         1 TEMP              0 ****  ****    0 ROOT
