@<TRIPOS>MOLECULE
AK0
   51    54     1     0     0
SMALL
No Charge or Current Charge


@<TRIPOS>ATOM
      1 C4          -2.0150     1.0800     0.6740 ca         1 AK0      -0.165000
      2 C14          1.5250    -1.8030     0.4030 c3         1 AK0      -0.001200
      3 C5          -2.1250    -0.2810     0.3250 ca         1 AK0      -0.098300
      4 C6          -3.2590    -0.7230    -0.3970 ca         1 AK0      -0.056300
      5 C11         -1.8100     3.8960     1.3540 c3         1 AK0       0.144900
      6 C7          -1.0090    -1.2600     0.7450 c6         1 AK0       0.168000
      7 C8          -2.1150    -2.9890    -0.6740 c6         1 AK0       0.093000
      8 C9          -3.4340    -2.2010    -0.7580 c6         1 AK0      -0.049100
      9 C10         -6.2950     2.1250    -1.5170 c3         1 AK0       0.144900
     10 C13          0.3120    -0.9420    -0.0150 c3         1 AK0      -0.088400
     11 N1          -1.4160    -2.6760     0.5920 n          1 AK0      -0.416800
     12 N2           4.6100    -1.3160    -1.6910 na         1 AK0      -0.221700
     13 C3          -3.0150     2.0060     0.3000 ca         1 AK0       0.113100
     14 C1          -4.2600     0.1940    -0.7660 ca         1 AK0      -0.173000
     15 C15          2.7980    -1.3840    -0.2840 cc         1 AK0      -0.132400
     16 C16          3.4600    -2.0500    -1.3110 cd         1 AK0      -0.154100
     17 C17          4.6320    -0.1980    -0.8780 ca         1 AK0      -0.023200
     18 C18          3.5680    -0.2010    -0.0210 ca         1 AK0      -0.114800
     19 C19          5.5770     0.8370    -0.8670 ca         1 AK0      -0.175000
     20 C2          -4.1440     1.5600    -0.4250 ca         1 AK0       0.121100
     21 C20          5.3980     1.8820     0.0610 ca         1 AK0       0.188000
     22 C21          4.3000     1.8800     0.9490 ca         1 AK0      -0.180000
     23 C22          3.3650     0.8240     0.9160 ca         1 AK0      -0.035000
     24 F1           6.2880     2.8980     0.1020 f          1 AK0      -0.183000
     25 O1          -5.1140     2.4860    -0.7790 os         1 AK0      -0.319100
     26 O2          -2.9250     3.3500     0.6270 os         1 AK0      -0.319100
     27 O3          -1.6080    -4.7770     1.5420 o          1 AK0      -0.605100
     28 H1          -1.1460     1.4020     1.2390 ha         1 AK0       0.117000
     29 H2           1.6590    -1.7340     1.4900 hc         1 AK0       0.046200
     30 H3           1.3190    -2.8560     0.1800 hc         1 AK0       0.046200
     31 H4          -1.7230     3.4300     2.3440 h1         1 AK0       0.040033
     32 H5          -0.8720     3.7400     0.8060 h1         1 AK0       0.040033
     33 H6          -1.9430     4.9760     1.4980 h1         1 AK0       0.040033
     34 H7          -0.8140    -1.0770     1.8120 h1         1 AK0       0.057700
     35 H8          -2.3180    -4.0650    -0.7600 h1         1 AK0       0.061200
     36 H9          -1.4700    -2.7120    -1.5200 h1         1 AK0       0.061200
     37 H10         -4.1640    -2.6490    -0.0710 hc         1 AK0       0.058200
     38 H11         -3.8550    -2.3020    -1.7680 hc         1 AK0       0.058200
     39 H12         -6.0300     1.7020    -2.4940 h1         1 AK0       0.040367
     40 H13         -6.8910     1.3890    -0.9630 h1         1 AK0       0.040367
     41 H14         -6.9200     3.0100    -1.6880 h1         1 AK0       0.040367
     42 H15         -0.7290    -3.1880     2.5110 h5         1 AK0       0.007200
     43 H16          0.5740     0.1110     0.1380 hc         1 AK0       0.055200
     44 H17          0.1580    -1.0570    -1.0940 hc         1 AK0       0.055200
     45 H18          5.2820    -1.5580    -2.4140 hn         1 AK0       0.354000
     46 H19         -5.1220    -0.1730    -1.3140 ha         1 AK0       0.119000
     47 H20          3.1940    -2.9850    -1.7990 h4         1 AK0       0.216000
     48 H21          6.4230     0.8380    -1.5490 ha         1 AK0       0.132000
     49 H22          4.1780     2.6930     1.6600 ha         1 AK0       0.129000
     50 H23          2.5160     0.8060     1.5960 ha         1 AK0       0.115000
     51 C12         -1.2380    -3.6110     1.6240 c          1 AK0       0.605900
@<TRIPOS>BOND
     1     1     3 ar  
     2     1    13 ar  
     3     1    28 1   
     4     2    10 1   
     5     2    15 1   
     6     2    29 1   
     7     2    30 1   
     8     3     4 ar  
     9     3     6 1   
    10     4     8 1   
    11     4    14 ar  
    12     5    26 1   
    13     5    31 1   
    14     5    32 1   
    15     5    33 1   
    16     6    10 1   
    17     6    11 1   
    18     6    34 1   
    19     7     8 1   
    20     7    11 1   
    21     7    35 1   
    22     7    36 1   
    23     8    37 1   
    24     8    38 1   
    25     9    25 1   
    26     9    39 1   
    27     9    40 1   
    28     9    41 1   
    29    10    43 1   
    30    10    44 1   
    31    11    51 1   
    32    12    16 1   
    33    12    17 1   
    34    12    45 1   
    35    13    20 ar  
    36    13    26 1   
    37    14    20 ar  
    38    14    46 1   
    39    15    16 2   
    40    15    18 1   
    41    16    47 1   
    42    17    18 ar  
    43    17    19 ar  
    44    18    23 ar  
    45    19    21 ar  
    46    19    48 1   
    47    20    25 1   
    48    21    22 ar  
    49    21    24 1   
    50    22    23 ar  
    51    22    49 1   
    52    23    50 1   
    53    27    51 2   
    54    42    51 1   
@<TRIPOS>SUBSTRUCTURE
     1 AK0         1 TEMP              0 ****  ****    0 ROOT
