@<TRIPOS>MOLECULE
AK0
   51    54     1     0     0
SMALL
bcc


@<TRIPOS>ATOM
      1 C4          -2.0240     1.0520     0.6720 ca         1 AK0      -0.183000
      2 C14          1.4710    -1.7680     0.3990 c3         1 AK0      -0.001200
      3 C5          -2.1270    -0.2970     0.3120 ca         1 AK0      -0.098300
      4 C6          -3.2330    -0.7340    -0.3960 ca         1 AK0      -0.056300
      5 C11         -1.8720     3.7730     1.3580 c3         1 AK0       0.121700
      6 C7          -1.0050    -1.2310     0.7070 c6         1 AK0       0.168000
      7 C8          -2.0910    -2.9380    -0.6880 c6         1 AK0       0.093000
      8 C9          -3.4050    -2.1820    -0.7690 c6         1 AK0      -0.049100
      9 C10         -6.1680     2.0980    -1.4500 c3         1 AK0       0.121700
     10 C13          0.2810    -0.9350    -0.0760 c3         1 AK0      -0.088400
     11 N1          -1.4190    -2.6120     0.5540 n          1 AK0      -0.483800
     12 N2           4.5400    -1.3360    -1.6090 na         1 AK0      -0.171400
     13 C3          -3.0010     1.9640     0.3310 ca         1 AK0       0.113100
     14 C1          -4.2250     0.1910    -0.7450 ca         1 AK0      -0.191000
     15 C15          2.7500    -1.3670    -0.2560 cc         1 AK0      -0.132400
     16 C16          3.4190    -2.0340    -1.2400 cd         1 AK0      -0.104100
     17 C17          4.6260    -0.2000    -0.8670 ca         1 AK0      -0.023200
     18 C18          3.5100    -0.1770     0.0010 ca         1 AK0      -0.114800
     19 C19          5.5890     0.8090    -0.8740 ca         1 AK0      -0.193000
     20 C2          -4.1260     1.5240    -0.4000 ca         1 AK0       0.121100
     21 C20          5.3920     1.8360     0.0170 ca         1 AK0       0.152900
     22 C21          4.3070     1.9040     0.8950 ca         1 AK0      -0.198000
     23 C22          3.3640     0.8940     0.8870 ca         1 AK0      -0.053000
     24 F1           6.2940     2.8370     0.0520 f          1 AK0      -0.147900
     25 O1          -5.0290     2.4750    -0.7050 os         1 AK0      -0.295900
     26 O2          -2.9830     3.2740     0.6420 os         1 AK0      -0.295900
     27 O3          -1.6170    -4.6700     1.5180 o          1 AK0      -0.605100
     28 H1          -1.1570     1.3710     1.2380 ha         1 AK0       0.135000
     29 H2           1.5650    -1.6720     1.4870 hc         1 AK0       0.046200
     30 H3           1.2850    -2.8260     0.2010 hc         1 AK0       0.046200
     31 H4          -1.7720     3.3040     2.3410 h1         1 AK0       0.040033
     32 H5          -0.9370     3.6380     0.8070 h1         1 AK0       0.040033
     33 H6          -2.0460     4.8380     1.4950 h1         1 AK0       0.040033
     34 H7          -0.7900    -1.0750     1.7700 h1         1 AK0       0.057700
     35 H8          -2.2500    -4.0120    -0.7400 h1         1 AK0       0.061200
     36 H9          -1.4430    -2.6650    -1.5250 h1         1 AK0       0.061200
     37 H10         -4.1360    -2.6500    -0.1020 hc         1 AK0       0.058200
     38 H11         -3.8110    -2.2690    -1.7790 hc         1 AK0       0.058200
     39 H12         -5.9000     1.6790    -2.4240 h1         1 AK0       0.040367
     40 H13         -6.7860     1.3710    -0.9150 h1         1 AK0       0.040367
     41 H14         -6.7490     3.0030    -1.6060 h1         1 AK0       0.040367
     42 H15         -0.7780    -3.0610     2.4280 h5         1 AK0       0.007200
     43 H16          0.5080     0.1280     0.0350 hc         1 AK0       0.055200
     44 H17          0.1180    -1.0960    -1.1450 hc         1 AK0       0.055200
     45 H18          5.2050    -1.6380    -2.3010 hn         1 AK0       0.303700
     46 H19         -5.0840    -0.1660    -1.3000 ha         1 AK0       0.137000
     47 H20          3.1790    -2.9730    -1.7140 h4         1 AK0       0.166000
     48 H21          6.4440     0.7910    -1.5370 ha         1 AK0       0.150000
     49 H22          4.2180     2.7430     1.5720 ha         1 AK0       0.147000
     50 H23          2.5240     0.9370     1.5690 ha         1 AK0       0.133000
     51 C12         -1.2700    -3.5010     1.5470 c          1 AK0       0.672900
@<TRIPOS>BOND
     1     1     3 ar  
     2     1    13 ar  
     3     1    28 1   
     4     2    10 1   
     5     2    15 1   
     6     2    29 1   
     7     2    30 1   
     8     3     4 ar  
     9     3     6 1   
    10     4     8 1   
    11     4    14 ar  
    12     5    26 1   
    13     5    31 1   
    14     5    32 1   
    15     5    33 1   
    16     6    10 1   
    17     6    11 1   
    18     6    34 1   
    19     7     8 1   
    20     7    11 1   
    21     7    35 1   
    22     7    36 1   
    23     8    37 1   
    24     8    38 1   
    25     9    25 1   
    26     9    39 1   
    27     9    40 1   
    28     9    41 1   
    29    10    43 1   
    30    10    44 1   
    31    11    51 1   
    32    12    16 1   
    33    12    17 1   
    34    12    45 1   
    35    13    20 ar  
    36    13    26 1   
    37    14    20 ar  
    38    14    46 1   
    39    15    16 2   
    40    15    18 1   
    41    16    47 1   
    42    17    18 ar  
    43    17    19 ar  
    44    18    23 ar  
    45    19    21 ar  
    46    19    48 1   
    47    20    25 1   
    48    21    22 ar  
    49    21    24 1   
    50    22    23 ar  
    51    22    49 1   
    52    23    50 1   
    53    27    51 2   
    54    42    51 1   
@<TRIPOS>SUBSTRUCTURE
     1 AK0         1 TEMP              0 ****  ****    0 ROOT
