@<TRIPOS>MOLECULE
AK1
   46    49     1     0     0
SMALL
No Charge or Current Charge


@<TRIPOS>ATOM
      1 C31          1.1070    -0.0540    -2.3470 cc         1 AK1       0.313900
      2 C27          1.7960    -0.6090    -1.2970 cd         1 AK1      -0.229300
      3 C23         -8.6450     0.0150     1.8590 c3         1 AK1       0.356300
      4 C17         -6.3470     0.0520     0.7330 ca         1 AK1      -0.119000
      5 C20         -7.4030     1.2200    -1.5820 ca         1 AK1      -0.092000
      6 C15         -5.4890     0.3420    -0.3460 ca         1 AK1      -0.016000
      7 C12          3.2710    -0.9200    -1.2150 c3         1 AK1      -0.017100
      8 C14         -3.0170     0.1670    -1.0320 c          1 AK1       0.669100
      9 C11          4.0330     0.0600    -0.2980 c3         1 AK1       0.232800
     10 C9           6.4560     0.4020     0.4610 ca         1 AK1       0.430900
     11 C7           7.0930     2.0920     1.8810 ca         1 AK1       0.165900
     12 C4           7.7850    -0.0260     0.4220 ca         1 AK1      -0.349000
     13 C3           8.7190     0.6730     1.1540 ca         1 AK1       0.163800
     14 C2          10.0470     0.1330     1.0300 cc         1 AK1      -0.291800
     15 C1          10.0740    -0.9760     0.1940 cd         1 AK1      -0.138400
     16 F26         -9.9280    -0.1990     1.4840 f          1 AK1      -0.113333
     17 N30         -0.2410     0.1150    -2.1530 nc         1 AK1      -0.644000
     18 C29         -0.5920    -0.3130    -0.9530 cd         1 AK1       0.594300
     19 S28          0.7150    -0.9610     0.0360 ss         1 AK1      -0.104400
     20 N6           8.4010     1.7450     1.8990 nb         1 AK1      -0.186000
     21 N10          5.4720    -0.2610    -0.2530 nu         1 AK1      -0.930100
     22 N8           6.1000     1.4730     1.1980 nb         1 AK1      -0.276000
     23 S5           8.4680    -1.4000    -0.4730 ss         1 AK1       0.073400
     24 F24         -8.6590     1.0320     2.7490 f          1 AK1      -0.113333
     25 F25         -8.2500    -1.0920     2.5290 f          1 AK1      -0.113333
     26 C18         -7.7310     0.3310     0.6670 ca         1 AK1      -0.169300
     27 C19         -8.2490     0.9260    -0.5010 ca         1 AK1      -0.083000
     28 C21         -6.0310     0.9300    -1.5100 ca         1 AK1      -0.092000
     29 N22         -4.1110     0.0230    -0.1900 ns         1 AK1      -0.166000
     30 N13         -1.8630    -0.2880    -0.4430 ns         1 AK1      -0.498400
     31 O16         -3.0720     0.6400    -2.1560 o          1 AK1      -0.551100
     32 H31          1.5310     0.2560    -3.2940 h4         1 AK1       0.047100
     33 H17         -5.9320    -0.3950     1.6350 ha         1 AK1       0.125000
     34 H20         -7.8130     1.6780    -2.4800 ha         1 AK1       0.126000
     35 H12          3.4120    -1.9420    -0.8420 hc         1 AK1       0.059700
     36 H12A         3.7150    -0.8880    -2.2180 hc         1 AK1       0.059700
     37 H11          3.8870     1.0840    -0.6710 h1         1 AK1       0.063200
     38 H11A         3.6040     0.0110     0.7130 h1         1 AK1       0.063200
     39 H7           6.8100     2.9580     2.4780 h5         1 AK1       0.046100
     40 H2          10.9260     0.5380     1.5260 ha         1 AK1       0.222000
     41 H1          10.9340    -1.5800    -0.0790 h4         1 AK1       0.221000
     42 HN10         5.7970    -1.0650    -0.7860 hn         1 AK1       0.495000
     43 H19         -9.3080     1.1670    -0.5780 ha         1 AK1       0.133000
     44 H21         -5.4110     1.1730    -2.3670 ha         1 AK1       0.151000
     45 HN22        -3.8940    -0.3870     0.7080 hn         1 AK1       0.149000
     46 HN13        -1.9820    -0.6500     0.4900 hn         1 AK1       0.328500
@<TRIPOS>BOND
     1     1     2 2   
     2     1    17 1   
     3     1    32 1   
     4     2     7 1   
     5     2    19 1   
     6     3    16 1   
     7     3    24 1   
     8     3    25 1   
     9     3    26 1   
    10     4     6 ar  
    11     4    26 ar  
    12     4    33 1   
    13     5    27 ar  
    14     5    28 ar  
    15     5    34 1   
    16     6    28 ar  
    17     6    29 1   
    18     7     9 1   
    19     7    35 1   
    20     7    36 1   
    21     8    29 1   
    22     8    30 1   
    23     8    31 2   
    24     9    21 1   
    25     9    37 1   
    26     9    38 1   
    27    10    12 ar  
    28    10    21 1   
    29    10    22 ar  
    30    11    20 ar  
    31    11    22 ar  
    32    11    39 1   
    33    12    13 ar  
    34    12    23 1   
    35    13    14 1   
    36    13    20 ar  
    37    14    15 2   
    38    14    40 1   
    39    15    23 1   
    40    15    41 1   
    41    17    18 2   
    42    18    19 1   
    43    18    30 1   
    44    21    42 1   
    45    26    27 ar  
    46    27    43 1   
    47    28    44 1   
    48    29    45 1   
    49    30    46 1   
@<TRIPOS>SUBSTRUCTURE
     1 AK1         1 TEMP              0 ****  ****    0 ROOT
