@<TRIPOS>MOLECULE
AK1
   46    49     1     0     0
SMALL
abcg2


@<TRIPOS>ATOM
      1 C31          1.0500     0.1330    -2.0990 cc         1 AK1       0.313900
      2 C27          1.7570    -0.5110    -1.1390 cd         1 AK1      -0.229300
      3 C23         -8.7030    -0.2970     1.4750 c3         1 AK1       0.356300
      4 C17         -6.3420     0.0460     0.7270 ca         1 AK1      -0.119000
      5 C20         -7.2050     1.1930    -1.6310 ca         1 AK1      -0.092000
      6 C15         -5.4030     0.5100    -0.1940 ca         1 AK1      -0.016000
      7 C12          3.1960    -0.8940    -1.1430 c3         1 AK1      -0.017100
      8 C14         -3.0040     0.2710    -0.7050 c          1 AK1       0.669100
      9 C11          4.0100    -0.0760    -0.1440 c3         1 AK1       0.232800
     10 C9           6.3890     0.2460     0.3500 ca         1 AK1       0.430900
     11 C7           7.0890     2.0690     1.5420 ca         1 AK1       0.165900
     12 C4           7.7390    -0.1650     0.3010 ca         1 AK1      -0.349000
     13 C3           8.6930     0.6380     0.9220 ca         1 AK1       0.163800
     14 C2          10.0110     0.0960     0.7880 cc         1 AK1      -0.291800
     15 C1          10.0140    -1.0630     0.0910 cd         1 AK1      -0.138400
     16 F26         -9.7470    -0.9070     0.9000 f          1 AK1      -0.113333
     17 N30         -0.2580     0.4200    -1.8200 nc         1 AK1      -0.644000
     18 C29         -0.5770    -0.0090    -0.6480 cd         1 AK1       0.594300
     19 S28          0.7080    -0.8110     0.2080 ss         1 AK1      -0.104400
     20 N6           8.3690     1.7800     1.5580 nb         1 AK1      -0.186000
     21 N10          5.4040    -0.4530    -0.2280 nu         1 AK1      -0.930100
     22 N8           6.0940     1.3760     0.9870 nb         1 AK1      -0.276000
     23 S5           8.4470    -1.5540    -0.4360 ss         1 AK1       0.073400
     24 F24         -9.2000     0.7350     2.1740 f          1 AK1      -0.113333
     25 F25         -8.1900    -1.1540     2.3640 f          1 AK1      -0.113333
     26 C18         -7.6970     0.1590     0.4640 ca         1 AK1      -0.169300
     27 C19         -8.1420     0.7310    -0.7220 ca         1 AK1      -0.083000
     28 C21         -5.8450     1.0960    -1.3800 ca         1 AK1      -0.092000
     29 N22         -4.0560     0.3960     0.1580 ns         1 AK1      -0.166000
     30 N13         -1.8040     0.1140    -0.0380 ns         1 AK1      -0.498400
     31 O16         -3.1010     0.2960    -1.9120 o          1 AK1      -0.551100
     32 H31          1.4660     0.4380    -3.0490 h4         1 AK1       0.047100
     33 H17         -5.9950    -0.4080     1.6470 ha         1 AK1       0.125000
     34 H20         -7.5370     1.6480    -2.5540 ha         1 AK1       0.126000
     35 H12          3.3090    -1.9610    -0.9290 hc         1 AK1       0.059700
     36 H12A         3.5820    -0.7280    -2.1500 hc         1 AK1       0.059700
     37 H11          3.9050     0.9850    -0.3680 h1         1 AK1       0.063200
     38 H11A         3.6290    -0.2300     0.8720 h1         1 AK1       0.063200
     39 H7           6.7920     2.9840     2.0450 h5         1 AK1       0.046100
     40 H2          10.8970     0.5620     1.1950 ha         1 AK1       0.222000
     41 H1          10.8660    -1.6790    -0.1550 h4         1 AK1       0.221000
     42 HN10         5.6170    -1.3630    -0.6030 hn         1 AK1       0.495000
     43 H19         -9.1970     0.8220    -0.9440 ha         1 AK1       0.133000
     44 H21         -5.1460     1.4860    -2.1030 ha         1 AK1       0.151000
     45 HN22        -3.8830     0.2460     1.1400 hn         1 AK1       0.149000
     46 HN13        -1.8190     0.0170     0.9670 hn         1 AK1       0.328500
@<TRIPOS>BOND
     1     1     2 2   
     2     1    17 1   
     3     1    32 1   
     4     2     7 1   
     5     2    19 1   
     6     3    16 1   
     7     3    24 1   
     8     3    25 1   
     9     3    26 1   
    10     4     6 ar  
    11     4    26 ar  
    12     4    33 1   
    13     5    27 ar  
    14     5    28 ar  
    15     5    34 1   
    16     6    28 ar  
    17     6    29 1   
    18     7     9 1   
    19     7    35 1   
    20     7    36 1   
    21     8    29 1   
    22     8    30 1   
    23     8    31 2   
    24     9    21 1   
    25     9    37 1   
    26     9    38 1   
    27    10    12 ar  
    28    10    21 1   
    29    10    22 ar  
    30    11    20 ar  
    31    11    22 ar  
    32    11    39 1   
    33    12    13 ar  
    34    12    23 1   
    35    13    14 1   
    36    13    20 ar  
    37    14    15 2   
    38    14    40 1   
    39    15    23 1   
    40    15    41 1   
    41    17    18 2   
    42    18    19 1   
    43    18    30 1   
    44    21    42 1   
    45    26    27 ar  
    46    27    43 1   
    47    28    44 1   
    48    29    45 1   
    49    30    46 1   
@<TRIPOS>SUBSTRUCTURE
     1 AK1         1 TEMP              0 ****  ****    0 ROOT
