@<TRIPOS>MOLECULE
AK2
   43    46     1     0     0
SMALL
abcg2


@<TRIPOS>ATOM
      1 C27          6.6940     0.6520    -1.1890 ca         1 AK2      -0.133000
      2 C26          8.0680     0.6160    -1.3770 ca         1 AK2      -0.074000
      3 C24          8.3620    -0.4880     0.7010 ca         1 AK2       0.151000
      4 C23          6.9980    -0.4680     0.9220 ca         1 AK2      -0.172000
      5 C22          6.1460     0.1060    -0.0260 ca         1 AK2       0.006000
      6 C17         -0.3170     1.4620    -1.5500 cc         1 AK2       0.316900
      7 C15          1.3100     0.8110    -0.2470 cd         1 AK2       0.601300
      8 C13         -1.0670     1.3190    -0.4320 cd         1 AK2      -0.230300
      9 C11         -3.2540     0.1890     0.0000 c3         1 AK2       0.229800
     10 C9          -9.2040    -0.9900     0.3560 cc         1 AK2      -0.291800
     11 C8          -9.3080     0.3340     0.6150 cd         1 AK2      -0.138400
     12 C4          -6.1240    -2.7480    -0.2990 ca         1 AK2       0.165900
     13 C6          -5.5900    -0.5530     0.0640 ca         1 AK2       0.429900
     14 C2          -7.8450    -1.3880     0.1410 ca         1 AK2       0.163800
     15 C1          -6.9680    -0.3120     0.2530 ca         1 AK2      -0.349000
     16 CL28         9.3900    -1.2060     1.8970 cl         1 AK2      -0.202000
     17 C25          8.9240     0.0510    -0.4450 ca         1 AK2      -0.130000
     18 N20          4.7880     0.0800     0.2810 ns         1 AK2      -0.162000
     19 C19          3.7490     0.6130    -0.4280 c          1 AK2       0.671100
     20 O21          3.8540     1.1750    -1.4950 o          1 AK2      -0.547100
     21 N18          2.5440     0.4340     0.2270 ns         1 AK2      -0.498400
     22 N16          1.0180     1.1750    -1.4470 nc         1 AK2      -0.648000
     23 S14         -0.0340     0.8000     0.8610 ss         1 AK2      -0.114400
     24 N10         -4.6740     0.4220     0.1360 nu         1 AK2      -0.928100
     25 N5          -5.1970    -1.7940    -0.2100 nb         1 AK2      -0.276000
     26 N3          -7.4220    -2.6350    -0.1410 nb         1 AK2      -0.186000
     27 S7          -7.7940     1.1590     0.6100 ss         1 AK2       0.074400
     28 H27          6.0710     1.1000    -1.9440 ha         1 AK2       0.155000
     29 H26          8.4810     1.0430    -2.2810 ha         1 AK2       0.122000
     30 H23          6.5920    -0.8950     1.8300 ha         1 AK2       0.123000
     31 H17         -0.7170     1.7800    -2.5030 h4         1 AK2       0.047100
     32 H12         -2.7330     2.2100     0.5570 hc         1 AK2       0.059700
     33 H12A        -2.9240     1.9640    -1.1720 hc         1 AK2       0.059700
     34 H11         -3.0800    -0.4920    -0.8320 h1         1 AK2       0.063700
     35 H11A        -2.8520    -0.2930     0.8990 h1         1 AK2       0.063700
     36 H8         -10.2090     0.8930     0.8150 h4         1 AK2       0.220000
     37 H4          -5.7480    -3.7400    -0.5270 h5         1 AK2       0.047100
     38 H25          9.9920     0.0300    -0.6080 ha         1 AK2       0.133000
     39 HN20         4.5660    -0.3890     1.1470 hn         1 AK2       0.148000
     40 HN18         2.5600     0.0310     1.1510 hn         1 AK2       0.326500
     41 HN10        -4.9620     1.3240     0.4800 hn         1 AK2       0.494000
     42 C12         -2.5340     1.5090    -0.2590 c3         1 AK2      -0.015100
     43 H9         -10.0420    -1.6700     0.3140 ha         1 AK2       0.222000
@<TRIPOS>BOND
     1     1     2 ar  
     2     1     5 ar  
     3     1    28 1   
     4     2    17 ar  
     5     2    29 1   
     6     3     4 ar  
     7     3    16 1   
     8     3    17 ar  
     9     4     5 ar  
    10     4    30 1   
    11     5    18 1   
    12     6     8 2   
    13     6    22 1   
    14     6    31 1   
    15     7    21 1   
    16     7    22 2   
    17     7    23 1   
    18     8    23 1   
    19     8    42 1   
    20     9    24 1   
    21     9    34 1   
    22     9    35 1   
    23     9    42 1   
    24    10    11 2   
    25    10    14 1   
    26    10    43 1   
    27    11    27 1   
    28    11    36 1   
    29    12    25 ar  
    30    12    26 ar  
    31    12    37 1   
    32    13    15 ar  
    33    13    24 1   
    34    13    25 ar  
    35    14    15 ar  
    36    14    26 ar  
    37    15    27 1   
    38    17    38 1   
    39    18    19 1   
    40    18    39 1   
    41    19    20 2   
    42    19    21 1   
    43    21    40 1   
    44    24    41 1   
    45    32    42 1   
    46    33    42 1   
@<TRIPOS>SUBSTRUCTURE
     1 AK2         1 TEMP              0 ****  ****    0 ROOT
