@<TRIPOS>MOLECULE
AK2
   43    46     1     0     0
SMALL
No Charge or Current Charge


@<TRIPOS>ATOM
      1 C27          6.8320     0.5790    -1.2420 ca         1 AK2      -0.133000
      2 C26          8.2200     0.4590    -1.4410 ca         1 AK2      -0.074000
      3 C24          8.4530    -0.5110     0.7720 ca         1 AK2       0.151000
      4 C23          7.0690    -0.3920     0.9720 ca         1 AK2      -0.172000
      5 C22          6.2420     0.1520    -0.0300 ca         1 AK2       0.006000
      6 C17         -0.3310     1.7130    -1.4490 cc         1 AK2       0.316900
      7 C15          1.3330     0.9460    -0.2060 cd         1 AK2       0.601300
      8 C13         -1.0610     1.3500    -0.3430 cd         1 AK2      -0.230300
      9 C11         -3.2810     0.1250    -0.2020 c3         1 AK2       0.229800
     10 C9          -9.3050    -0.9890     0.4290 cc         1 AK2      -0.291800
     11 C8          -9.3690     0.3850     0.6170 cd         1 AK2      -0.138400
     12 C4          -6.2800    -2.9160    -0.2200 ca         1 AK2       0.165900
     13 C6          -5.6970    -0.7030    -0.0090 ca         1 AK2       0.429900
     14 C2          -7.9560    -1.4310     0.1940 ca         1 AK2       0.163800
     15 C1          -7.0430    -0.4000     0.2080 ca         1 AK2      -0.349000
     16 Cl28         9.4650    -1.1940     2.0370 cl         1 AK2      -0.202000
     17 C25          9.0310    -0.0860    -0.4330 ca         1 AK2      -0.130000
     18 N20          4.8490     0.2400     0.2470 ns         1 AK2      -0.162000
     19 C19          3.7770     0.7100    -0.4970 c          1 AK2       0.671100
     20 O21          3.8710     1.1720    -1.6240 o          1 AK2      -0.547100
     21 N18          2.5940     0.5940     0.1910 ns         1 AK2      -0.498400
     22 N16          1.0200     1.4840    -1.3730 nc         1 AK2      -0.648000
     23 S14         -0.0180     0.6790     0.8940 ss         1 AK2      -0.114400
     24 N10         -4.7330     0.2910    -0.0060 nu         1 AK2      -0.928100
     25 N5          -5.3050    -1.9750    -0.2260 nb         1 AK2      -0.276000
     26 N3          -7.6030    -2.7100    -0.0190 nb         1 AK2      -0.186000
     27 S7          -7.7740     1.1910     0.5120 ss         1 AK2       0.074400
     28 H27          6.2370     1.0050    -2.0440 ha         1 AK2       0.155000
     29 H26          8.6650     0.7900    -2.3770 ha         1 AK2       0.122000
     30 H23          6.6380    -0.7270     1.9120 ha         1 AK2       0.123000
     31 H17         -0.7250     2.1550    -2.3550 h4         1 AK2       0.047100
     32 H12         -2.7410     1.9400     0.8490 hc         1 AK2       0.059700
     33 H12A        -2.9750     2.1580    -0.8810 hc         1 AK2       0.059700
     34 H11         -3.0830    -0.3340    -1.1810 h1         1 AK2       0.063700
     35 H11A        -2.8710    -0.5440     0.5680 h1         1 AK2       0.063700
     36 H8         -10.2520     0.9880     0.8120 h4         1 AK2       0.220000
     37 H4          -5.9680    -3.9440    -0.3950 h5         1 AK2       0.047100
     38 H25         10.1040    -0.1790    -0.5840 ha         1 AK2       0.133000
     39 HN20         4.6010    -0.1100     1.1620 hn         1 AK2       0.148000
     40 HN18         2.6820     0.1930     1.1120 hn         1 AK2       0.326500
     41 HN10        -5.0860     1.2300     0.1690 hn         1 AK2       0.494000
     42 C12         -2.5490     1.4820    -0.1290 c3         1 AK2      -0.015100
     43 H9         -10.1730    -1.6440     0.4580 ha         1 AK2       0.222000
@<TRIPOS>BOND
     1     1     2 ar  
     2     1     5 ar  
     3     1    28 1   
     4     2    17 ar  
     5     2    29 1   
     6     3     4 ar  
     7     3    16 1   
     8     3    17 ar  
     9     4     5 ar  
    10     4    30 1   
    11     5    18 1   
    12     6     8 2   
    13     6    22 1   
    14     6    31 1   
    15     7    21 1   
    16     7    22 2   
    17     7    23 1   
    18     8    23 1   
    19     8    42 1   
    20     9    24 1   
    21     9    34 1   
    22     9    35 1   
    23     9    42 1   
    24    10    11 2   
    25    10    14 1   
    26    10    43 1   
    27    11    27 1   
    28    11    36 1   
    29    12    25 ar  
    30    12    26 ar  
    31    12    37 1   
    32    13    15 ar  
    33    13    24 1   
    34    13    25 ar  
    35    14    15 ar  
    36    14    26 ar  
    37    15    27 1   
    38    17    38 1   
    39    18    19 1   
    40    18    39 1   
    41    19    20 2   
    42    19    21 1   
    43    21    40 1   
    44    24    41 1   
    45    32    42 1   
    46    33    42 1   
@<TRIPOS>SUBSTRUCTURE
     1 AK2         1 TEMP              0 ****  ****    0 ROOT
