@<TRIPOS>MOLECULE
AK3
   49    52     1     0     0
SMALL
No Charge or Current Charge


@<TRIPOS>ATOM
      1 C31          3.6680    33.4910     6.5500 cc         1 AK3       0.244200
      2 N29          4.2930    31.7140     5.5240 na         1 AK3       0.081600
      3 C24         12.6870    20.1230     9.0680 ca         1 AK3      -0.116000
      4 C23         13.2630    18.9330     8.5720 ca         1 AK3      -0.161300
      5 C22         13.1030    18.6170     7.2060 ca         1 AK3      -0.082000
      6 C17          4.6080    31.5540     9.5180 ca         1 AK3       0.134900
      7 C20         11.8340    20.6690     6.8590 ca         1 AK3      -0.095000
      8 C15          4.0970    32.5430     7.5460 ca         1 AK3      -0.011300
      9 C13          4.9610    30.3190     7.5890 ca         1 AK3       0.403900
     10 C14          4.4850    31.4290     6.8670 ca         1 AK3      -0.197200
     11 C10         10.6950    23.2270     8.2830 c          1 AK3       0.668100
     12 C8           9.6710    25.3230     9.0830 cc         1 AK3       0.563300
     13 C4           8.3850    27.3040     8.5370 cc         1 AK3      -0.255300
     14 C6           8.7680    27.1960     9.8560 cd         1 AK3       0.311900
     15 C3           7.5910    28.4130     7.8960 c3         1 AK3      -0.023100
     16 C2           6.1210    28.0220     7.6230 c3         1 AK3       0.235800
     17 F28         13.1880    17.1230    10.1230 f          1 AK3      -0.111667
     18 N7           9.5020    26.0590    10.1650 nd         1 AK3      -0.708000
     19 S5           8.9560    25.9470     7.6090 ss         1 AK3       0.015600
     20 C32          4.5970    30.7990     4.4110 c3         1 AK3       0.078900
     21 N30          3.7850    32.9950     5.3070 nd         1 AK3      -0.506100
     22 N16          4.1400    32.6580     8.8840 nb         1 AK3      -0.151000
     23 N18          5.0190    30.3930     8.9390 nb         1 AK3      -0.269000
     24 N1           5.3750    29.1300     6.9900 nu         1 AK3      -0.938100
     25 C25         14.0260    17.9880     9.5100 c3         1 AK3       0.344300
     26 F26         14.9520    17.2470     8.8580 f          1 AK3      -0.111667
     27 F27         14.6860    18.6570    10.4840 f          1 AK3      -0.111667
     28 C21         12.3950    19.4820     6.3580 ca         1 AK3      -0.089000
     29 C19         11.9750    20.9990     8.2250 ca         1 AK3      -0.017000
     30 N11         11.4320    22.1770     8.8110 ns         1 AK3      -0.153000
     31 O12         10.3600    23.3210     7.1130 o          1 AK3      -0.601100
     32 H31          3.2850    34.4980     6.6530 h4         1 AK3       0.064800
     33 H24         12.7920    20.3720    10.1230 ha         1 AK3       0.129000
     34 H22         13.5220    17.7000     6.7970 ha         1 AK3       0.135000
     35 H17          4.6600    31.6020    10.6050 h5         1 AK3       0.048100
     36 H20         11.2940    21.3110     6.1710 ha         1 AK3       0.151000
     37 H6           8.5400    27.9130    10.6360 h4         1 AK3       0.046100
     38 H3           7.6160    29.3010     8.5390 hc         1 AK3       0.062200
     39 H3A          8.0630    28.7050     6.9500 hc         1 AK3       0.062200
     40 H2           6.1130    27.1450     6.9610 h1         1 AK3       0.065200
     41 H2A          5.6390    27.7220     8.5650 h1         1 AK3       0.065200
     42 H32          4.3830    31.2930     3.4560 h1         1 AK3       0.057367
     43 H32A         5.6580    30.5230     4.4390 h1         1 AK3       0.057367
     44 H32B         3.9730    29.9000     4.4930 h1         1 AK3       0.057367
     45 HN1          5.2520    29.0790     5.9820 hn         1 AK3       0.490000
     46 H21         12.2780    19.2320     5.3050 ha         1 AK3       0.127000
     47 HN11        11.6230    22.2590     9.8000 hn         1 AK3       0.156000
     48 HN9         10.7120    23.9750    10.1620 hn         1 AK3       0.339500
     49 N9          10.3790    24.1630     9.2300 ns         1 AK3      -0.486400
@<TRIPOS>BOND
     1     1     8 1   
     2     1    21 2   
     3     1    32 1   
     4     2    10 1   
     5     2    20 1   
     6     2    21 1   
     7     3     4 ar  
     8     3    29 ar  
     9     3    33 1   
    10     4     5 ar  
    11     4    25 1   
    12     5    28 ar  
    13     5    34 1   
    14     6    22 ar  
    15     6    23 ar  
    16     6    35 1   
    17     7    28 ar  
    18     7    29 ar  
    19     7    36 1   
    20     8    10 ar  
    21     8    22 ar  
    22     9    10 ar  
    23     9    23 ar  
    24     9    24 1   
    25    11    30 1   
    26    11    31 2   
    27    11    49 1   
    28    12    18 2   
    29    12    19 1   
    30    12    49 1   
    31    13    14 2   
    32    13    15 1   
    33    13    19 1   
    34    14    18 1   
    35    14    37 1   
    36    15    16 1   
    37    15    38 1   
    38    15    39 1   
    39    16    24 1   
    40    16    40 1   
    41    16    41 1   
    42    17    25 1   
    43    20    42 1   
    44    20    43 1   
    45    20    44 1   
    46    24    45 1   
    47    25    26 1   
    48    25    27 1   
    49    28    46 1   
    50    29    30 1   
    51    30    47 1   
    52    48    49 1   
@<TRIPOS>SUBSTRUCTURE
     1 AK3         1 TEMP              0 ****  ****    0 ROOT
