@<TRIPOS>MOLECULE
AK3
   49    52     1     0     0
SMALL
abcg2


@<TRIPOS>ATOM
      1 C31          3.4650    33.1640     6.5320 cc         1 AK3       0.244200
      2 N29          4.4440    31.6030     5.4100 na         1 AK3       0.081600
      3 C24         12.7350    20.2650     8.9920 ca         1 AK3      -0.116000
      4 C23         13.2130    19.1520     8.3180 ca         1 AK3      -0.161300
      5 C22         12.6560    18.7560     7.1040 ca         1 AK3      -0.082000
      6 C17          4.4260    31.1310     9.3680 ca         1 AK3       0.134900
      7 C20         11.1090    20.6120     7.2430 ca         1 AK3      -0.095000
      8 C15          3.9330    32.2250     7.4820 ca         1 AK3      -0.011300
      9 C13          5.1510    30.1300     7.4050 ca         1 AK3       0.403900
     10 C14          4.5630    31.2290     6.7180 ca         1 AK3      -0.197200
     11 C10         10.5680    23.2090     8.7330 c          1 AK3       0.668100
     12 C8           9.6840    25.3560     9.5060 cc         1 AK3       0.563300
     13 C4           8.5560    27.3760     8.7200 cc         1 AK3      -0.255300
     14 C6           8.8390    27.3170    10.0470 cd         1 AK3       0.311900
     15 C3           7.8570    28.4560     7.9630 c3         1 AK3      -0.023100
     16 C2           6.4550    28.0370     7.4850 c3         1 AK3       0.235800
     17 F28         13.8320    17.2520     9.5880 f          1 AK3      -0.111667
     18 N7           9.4760    26.1800    10.4930 nd         1 AK3      -0.708000
     19 S5           9.1150    25.9080     7.9550 ss         1 AK3       0.015600
     20 C32          4.9240    30.9410     4.2100 c3         1 AK3       0.078900
     21 N30          3.7810    32.7720     5.3060 nd         1 AK3      -0.506100
     22 N16          3.8520    32.1900     8.8380 nb         1 AK3      -0.151000
     23 N18          5.0610    30.1230     8.7380 nb         1 AK3      -0.269000
     24 N1           5.7690    29.1070     6.7830 nu         1 AK3      -0.938100
     25 C25         14.3150    18.3350     8.9260 c3         1 AK3       0.344300
     26 F26         15.1740    17.8540     7.9990 f          1 AK3      -0.111667
     27 F27         15.0510    19.0290     9.8180 f          1 AK3      -0.111667
     28 C21         11.6050    19.4960     6.5800 ca         1 AK3      -0.089000
     29 C19         11.6790    21.0080     8.4560 ca         1 AK3      -0.017000
     30 N11         11.2270    22.1050     9.2030 ns         1 AK3      -0.153000
     31 O12         10.2220    23.3770     7.5700 o          1 AK3      -0.601100
     32 H31          2.9230    34.0820     6.6940 h4         1 AK3       0.064800
     33 H24         13.1800    20.5680     9.9300 ha         1 AK3       0.129000
     34 H22         13.0350    17.8890     6.5810 ha         1 AK3       0.135000
     35 H17          4.3950    31.0470    10.4500 h5         1 AK3       0.048100
     36 H20         10.2880    21.1720     6.8270 ha         1 AK3       0.151000
     37 H6           8.5990    28.0990    10.7550 h4         1 AK3       0.046100
     38 H3           7.7630    29.3240     8.6160 hc         1 AK3       0.062200
     39 H3A          8.4440    28.7630     7.0940 hc         1 AK3       0.062200
     40 H2           6.5290    27.1950     6.7970 h1         1 AK3       0.065200
     41 H2A          5.8540    27.7270     8.3380 h1         1 AK3       0.065200
     42 H32          4.6050    31.5370     3.3600 h1         1 AK3       0.057367
     43 H32A         6.0130    30.8770     4.2160 h1         1 AK3       0.057367
     44 H32B         4.4930    29.9420     4.1290 h1         1 AK3       0.057367
     45 HN1          5.8880    29.1510     5.7860 hn         1 AK3       0.490000
     46 H21         11.1570    19.1990     5.6410 ha         1 AK3       0.127000
     47 HN11        11.5640    22.1410    10.1530 hn         1 AK3       0.156000
     48 HN9         10.6110    23.9870    10.6650 hn         1 AK3       0.339500
     49 N9          10.3200    24.1500     9.7100 ns         1 AK3      -0.486400
@<TRIPOS>BOND
     1     1     8 1   
     2     1    21 2   
     3     1    32 1   
     4     2    10 1   
     5     2    20 1   
     6     2    21 1   
     7     3     4 ar  
     8     3    29 ar  
     9     3    33 1   
    10     4     5 ar  
    11     4    25 1   
    12     5    28 ar  
    13     5    34 1   
    14     6    22 ar  
    15     6    23 ar  
    16     6    35 1   
    17     7    28 ar  
    18     7    29 ar  
    19     7    36 1   
    20     8    10 ar  
    21     8    22 ar  
    22     9    10 ar  
    23     9    23 ar  
    24     9    24 1   
    25    11    30 1   
    26    11    31 2   
    27    11    49 1   
    28    12    18 2   
    29    12    19 1   
    30    12    49 1   
    31    13    14 2   
    32    13    15 1   
    33    13    19 1   
    34    14    18 1   
    35    14    37 1   
    36    15    16 1   
    37    15    38 1   
    38    15    39 1   
    39    16    24 1   
    40    16    40 1   
    41    16    41 1   
    42    17    25 1   
    43    20    42 1   
    44    20    43 1   
    45    20    44 1   
    46    24    45 1   
    47    25    26 1   
    48    25    27 1   
    49    28    46 1   
    50    29    30 1   
    51    30    47 1   
    52    48    49 1   
@<TRIPOS>SUBSTRUCTURE
     1 AK3         1 TEMP              0 ****  ****    0 ROOT
