@<TRIPOS>MOLECULE
AK4
   48    51     1     0     0
SMALL
No Charge or Current Charge


@<TRIPOS>ATOM
      1 C30         23.0120    15.6850    24.8940 c          1 AK4       0.699000
      2 C28         25.4270    18.4390    22.3030 cc         1 AK4       0.209200
      3 C24         16.3090     5.2200    19.0990 ca         1 AK4      -0.166000
      4 C23         15.6530     4.0710    19.5690 ca         1 AK4       0.152000
      5 C22         15.5780     3.8150    20.9450 ca         1 AK4      -0.132000
      6 C17         24.5440    16.4940    19.3250 ca         1 AK4       0.114900
      7 C20         16.8200     5.8630    21.3860 ca         1 AK4      -0.127000
      8 C15         24.9890    17.5000    21.3040 ca         1 AK4      -0.039300
      9 C13         23.9700    15.3440    21.2530 ca         1 AK4       0.422900
     10 C14         24.4910    16.4300    21.9820 ca         1 AK4      -0.165200
     11 C10         18.2130     8.3350    20.0350 c          1 AK4       0.666100
     12 C8          19.3860    10.3790    19.3030 cc         1 AK4       0.535300
     13 C4          20.6080    12.3690    19.9460 cc         1 AK4      -0.219300
     14 C6          20.4300    12.2020    18.5910 cd         1 AK4       0.286900
     15 C3          21.3170    13.5000    20.6490 c3         1 AK4      -0.039100
     16 C2          22.7210    13.1050    21.1560 c3         1 AK4       0.244800
     17 O32         22.3060    14.8360    24.3710 o          1 AK4      -0.703500
     18 O31         22.6300    16.4420    25.7740 o          1 AK4      -0.703500
     19 C29         24.4650    15.7710    24.4310 c3         1 AK4      -0.083400
     20 N26         24.6510    16.7220    23.3280 na         1 AK4       0.159600
     21 N27         25.2420    17.9680    23.5450 nd         1 AK4      -0.509100
     22 N18         24.0120    15.3830    19.9000 nb         1 AK4      -0.304000
     23 N16         25.0400    17.5830    19.9640 nb         1 AK4      -0.173000
     24 S5          19.8780    11.0660    20.8380 ss         1 AK4       0.027600
     25 N7          19.7310    11.0590    18.2250 nd         1 AK4      -0.713000
     26 O12         18.3670     8.4820    21.2370 o          1 AK4      -0.594100
     27 N11         17.5470     7.2700    19.4500 ns         1 AK4      -0.157000
     28 C19         16.8990     6.1280    20.0000 ca         1 AK4       0.006000
     29 C21         16.1610     4.7110    21.8550 ca         1 AK4      -0.074000
     30 H28         25.8790    19.4170    22.2030 h4         1 AK4       0.041800
     31 H24         16.3580     5.4030    18.0290 ha         1 AK4       0.125000
     32 H22         15.0690     2.9240    21.3050 ha         1 AK4       0.130000
     33 H17         24.5690    16.5150    18.2370 h5         1 AK4       0.024100
     34 H20         17.2590     6.5330    22.1180 ha         1 AK4       0.158000
     35 H6          20.7890    12.8760    17.8220 h4         1 AK4       0.045100
     36 H3          21.4040    14.3560    19.9700 hc         1 AK4       0.079200
     37 H3A         20.7150    13.8400    21.5000 hc         1 AK4       0.079200
     38 H2          22.6100    12.2660    21.8570 h1         1 AK4       0.051700
     39 H2A         23.3360    12.7500    20.3170 h1         1 AK4       0.051700
     40 H29         25.0810    16.0810    25.2840 h1         1 AK4       0.052700
     41 H29A        24.8030    14.7770    24.1180 h1         1 AK4       0.052700
     42 HN1         23.0700    14.3880    22.8120 hn         1 AK4       0.519000
     43 HN9         18.4950     8.9880    18.1420 hn         1 AK4       0.332500
     44 HN11        17.5110     7.3050    18.4400 hn         1 AK4       0.153000
     45 H21         16.1050     4.5140    22.9230 ha         1 AK4       0.123000
     46 N1          23.3830    14.2270    21.8430 nu         1 AK4      -0.930100
     47 N9          18.6870     9.2200    19.1040 ns         1 AK4      -0.486400
     48 Cl25        14.9230     2.9520    18.4260 cl         1 AK4      -0.219000
@<TRIPOS>BOND
     1     1    17 1   
     2     1    18 1   
     3     1    19 1   
     4     2     8 1   
     5     2    21 2   
     6     2    30 1   
     7     3     4 ar  
     8     3    28 ar  
     9     3    31 1   
    10     4     5 ar  
    11     4    48 1   
    12     5    29 ar  
    13     5    32 1   
    14     6    22 ar  
    15     6    23 ar  
    16     6    33 1   
    17     7    28 ar  
    18     7    29 ar  
    19     7    34 1   
    20     8    10 ar  
    21     8    23 ar  
    22     9    10 ar  
    23     9    22 ar  
    24     9    46 1   
    25    10    20 1   
    26    11    26 2   
    27    11    27 1   
    28    11    47 1   
    29    12    24 1   
    30    12    25 2   
    31    12    47 1   
    32    13    14 2   
    33    13    15 1   
    34    13    24 1   
    35    14    25 1   
    36    14    35 1   
    37    15    16 1   
    38    15    36 1   
    39    15    37 1   
    40    16    38 1   
    41    16    39 1   
    42    16    46 1   
    43    19    20 1   
    44    19    40 1   
    45    19    41 1   
    46    20    21 1   
    47    27    28 1   
    48    27    44 1   
    49    29    45 1   
    50    42    46 1   
    51    43    47 1   
@<TRIPOS>SUBSTRUCTURE
     1 AK4         1 TEMP              0 ****  ****    0 ROOT
