@<TRIPOS>MOLECULE
AK4
   48    51     1     0     0
SMALL
abcg2


@<TRIPOS>ATOM
      1 C30         22.8150    15.9000    24.7910 c          1 AK4       0.699000
      2 C28         25.8480    17.8780    22.2820 cc         1 AK4       0.209200
      3 C24         16.7460     5.1730    19.1240 ca         1 AK4      -0.166000
      4 C23         16.3400     3.9920    19.7200 ca         1 AK4       0.152000
      5 C22         16.2330     3.8620    21.0980 ca         1 AK4      -0.132000
      6 C17         24.5680    16.1480    19.3710 ca         1 AK4       0.114900
      7 C20         16.9530     6.1690    21.3170 ca         1 AK4      -0.127000
      8 C15         25.2580    17.0500    21.2970 ca         1 AK4      -0.039300
      9 C13         23.8980    15.0450    21.2990 ca         1 AK4       0.422900
     10 C14         24.6150    16.0360    22.0250 ca         1 AK4      -0.165200
     11 C10         18.0620     8.5450    19.7950 c          1 AK4       0.666100
     12 C8          18.9720    10.7160    19.1360 cc         1 AK4       0.535300
     13 C4          20.2380    12.6170    20.0030 cc         1 AK4      -0.219300
     14 C6          19.8840    12.6730    18.6930 cd         1 AK4       0.286900
     15 C3          21.0390    13.5950    20.7970 c3         1 AK4      -0.039100
     16 C2          22.4390    13.0610    21.1470 c3         1 AK4       0.244800
     17 O32         22.3560    15.2690    25.7710 o          1 AK4      -0.703500
     18 O31         22.2210    16.7000    24.0380 o          1 AK4      -0.703500
     19 C29         24.3200    15.6220    24.5150 c3         1 AK4      -0.083400
     20 N26         24.8550    16.2840    23.3450 na         1 AK4       0.159600
     21 N27         25.5870    17.4060    23.4930 nd         1 AK4      -0.509100
     22 N18         23.9000    15.1390    19.9660 nb         1 AK4      -0.304000
     23 N16         25.2490    17.1210    19.9390 nb         1 AK4      -0.173000
     24 S5          19.6430    11.1260    20.6900 ss         1 AK4       0.027600
     25 N7          19.1670    11.6030    18.2020 nd         1 AK4      -0.713000
     26 O12         18.4050     8.6580    20.9650 o          1 AK4      -0.594100
     27 N11         17.4380     7.4500    19.2620 ns         1 AK4      -0.157000
     28 C19         17.0580     6.2760    19.9270 ca         1 AK4       0.006000
     29 C21         16.5450     4.9660    21.8810 ca         1 AK4      -0.074000
     30 H28         26.4390    18.7710    22.1540 h4         1 AK4       0.041800
     31 H24         16.8250     5.2430    18.0470 ha         1 AK4       0.125000
     32 H22         15.9150     2.9290    21.5410 ha         1 AK4       0.130000
     33 H17         24.5250    16.1490    18.2860 h5         1 AK4       0.024100
     34 H20         17.1860     7.0130    21.9430 ha         1 AK4       0.158000
     35 H6          20.1250    13.4920    18.0310 h4         1 AK4       0.045100
     36 H3          21.1470    14.5070    20.2070 hc         1 AK4       0.079200
     37 H3A         20.5230    13.8630    21.7230 hc         1 AK4       0.079200
     38 H2          22.3560    12.1700    21.7680 h1         1 AK4       0.051700
     39 H2A         22.9650    12.7900    20.2330 h1         1 AK4       0.051700
     40 H29         24.8960    15.9780    25.3670 h1         1 AK4       0.052700
     41 H29A        24.4890    14.5470    24.4420 h1         1 AK4       0.052700
     42 HN1         23.1690    14.0050    22.8840 hn         1 AK4       0.519000
     43 HN9         17.9580     9.4570    17.9230 hn         1 AK4       0.332500
     44 HN11        17.3310     7.4240    18.2580 hn         1 AK4       0.153000
     45 H21         16.4640     4.8910    22.9580 ha         1 AK4       0.123000
     46 N1          23.2380    14.0250    21.8820 nu         1 AK4      -0.930100
     47 N9          18.2860     9.5490    18.8750 ns         1 AK4      -0.486400
     48 CL25        15.9550     2.6220    18.6980 cl         1 AK4      -0.219000
@<TRIPOS>BOND
     1     1    17 1   
     2     1    18 1   
     3     1    19 1   
     4     2     8 1   
     5     2    21 2   
     6     2    30 1   
     7     3     4 ar  
     8     3    28 ar  
     9     3    31 1   
    10     4     5 ar  
    11     4    48 1   
    12     5    29 ar  
    13     5    32 1   
    14     6    22 ar  
    15     6    23 ar  
    16     6    33 1   
    17     7    28 ar  
    18     7    29 ar  
    19     7    34 1   
    20     8    10 ar  
    21     8    23 ar  
    22     9    10 ar  
    23     9    22 ar  
    24     9    46 1   
    25    10    20 1   
    26    11    26 2   
    27    11    27 1   
    28    11    47 1   
    29    12    24 1   
    30    12    25 2   
    31    12    47 1   
    32    13    14 2   
    33    13    15 1   
    34    13    24 1   
    35    14    25 1   
    36    14    35 1   
    37    15    16 1   
    38    15    36 1   
    39    15    37 1   
    40    16    38 1   
    41    16    39 1   
    42    16    46 1   
    43    19    20 1   
    44    19    40 1   
    45    19    41 1   
    46    20    21 1   
    47    27    28 1   
    48    27    44 1   
    49    29    45 1   
    50    42    46 1   
    51    43    47 1   
@<TRIPOS>SUBSTRUCTURE
     1 AK4         1 TEMP              0 ****  ****    0 ROOT
