@<TRIPOS>MOLECULE
AK5
   51    53     1     0     0
SMALL
bcc


@<TRIPOS>ATOM
      1 C28         -7.4880    -2.7820     1.1210 ca         1 AK5      -0.169500
      2 C27         -8.5400    -3.6870     1.1930 ca         1 AK5      -0.101000
      3 C26         -9.6340    -3.5930     0.3460 ca         1 AK5      -0.157000
      4 C24         -8.6300    -1.6620    -0.6790 ca         1 AK5      -0.169500
      5 C23         -7.5290    -1.7530     0.1780 ca         1 AK5       0.076600
      6 C16         -5.1960     1.7520    -0.2240 ca         1 AK5      -0.082000
      7 C17         -4.4300     2.8650    -0.5320 ca         1 AK5      -0.210000
      8 O19         -2.2350     3.8700    -0.5900 os         1 AK5      -0.327900
      9 C20         -5.3860    -0.5970     0.7120 c          1 AK5       0.694700
     10 C15         -4.6120     0.6210     0.3340 ca         1 AK5      -0.172600
     11 C13         -2.4590     1.7200     0.2750 ca         1 AK5       0.024600
     12 C14         -3.2430     0.6290     0.6030 ca         1 AK5      -0.049000
     13 C9           5.1650    -2.2560    -1.5630 ca         1 AK5       0.720900
     14 C7           7.0720    -1.3230    -0.7520 ca         1 AK5       0.756200
     15 C5           4.9040    -0.4190    -0.2880 ca         1 AK5       0.612600
     16 C6           6.2770    -0.3430    -0.1250 ca         1 AK5      -0.354500
     17 C3          -0.2010     0.7460     0.3610 c          1 AK5       0.674100
     18 C2           2.2240     0.2270    -0.0160 c3         1 AK5       0.012700
     19 C1           1.2270     1.1210     0.7050 c3         1 AK5      -0.157400
     20 BR30         7.0460     1.0200     0.9090 br         1 AK5      -0.066100
     21 N8           6.4770    -2.2840    -1.4750 nb         1 AK5      -0.802000
     22 N10          4.3390    -1.3810    -1.0150 nb         1 AK5      -0.767000
     23 S4           3.8820     0.7750     0.4800 ss         1 AK5      -0.291400
     24 O12         -0.5170    -0.3720     0.0020 o          1 AK5      -0.571100
     25 N11         -1.0800     1.7670     0.5170 ns         1 AK5      -0.475100
     26 C18         -3.0600     2.8550    -0.3060 ca         1 AK5       0.128100
     27 C29         -2.7730     5.0510    -1.1610 c3         1 AK5       0.127700
     28 O21         -4.9830    -1.3630     1.5720 o          1 AK5      -0.576100
     29 N22         -6.5380    -0.7810     0.0170 ns         1 AK5      -0.470100
     30 C25         -9.6700    -2.5710    -0.5940 ca         1 AK5      -0.101000
     31 H28         -6.6520    -2.8890     1.7910 ha         1 AK5       0.144500
     32 H27         -8.4940    -4.4780     1.9300 ha         1 AK5       0.130500
     33 H26        -10.4470    -4.3030     0.4180 ha         1 AK5       0.132000
     34 H24         -8.6740    -0.8680    -1.4160 ha         1 AK5       0.144500
     35 H16         -6.2620     1.8110    -0.4010 ha         1 AK5       0.131000
     36 H17         -4.9180     3.7320    -0.9550 ha         1 AK5       0.140000
     37 H14         -2.7920    -0.2330     1.0700 ha         1 AK5       0.180000
     38 H9           4.7060    -3.0410    -2.1550 h5         1 AK5       0.051100
     39 H2           2.0920    -0.8160     0.2630 h1         1 AK5       0.094200
     40 H2A          2.1230     0.3150    -1.0970 h1         1 AK5       0.094200
     41 H1           1.4060     2.1740     0.4740 hc         1 AK5       0.070200
     42 H1A          1.3390     1.0160     1.7890 hc         1 AK5       0.070200
     43 HN31         8.9470    -0.6550    -0.2090 hn         1 AK5       0.451800
     44 HN3A         8.8980    -2.0780    -1.1730 hn         1 AK5       0.451800
     45 HN11        -0.6920     2.6740     0.7260 hn         1 AK5       0.329500
     46 H29         -1.9340     5.7220    -1.3210 h1         1 AK5       0.045367
     47 H29A        -3.2560     4.8510    -2.1200 h1         1 AK5       0.045367
     48 H29B        -3.4910     5.5310    -0.4920 h1         1 AK5       0.045367
     49 HN22        -6.7120    -0.1360    -0.7380 hn         1 AK5       0.316500
     50 H25        -10.5130    -2.4750    -1.2660 ha         1 AK5       0.130500
     51 N31          8.4020    -1.3680    -0.6610 nv         1 AK5      -0.957500
@<TRIPOS>BOND
     1     1     2 ar  
     2     1     5 ar  
     3     1    31 1   
     4     2     3 ar  
     5     2    32 1   
     6     3    30 ar  
     7     3    33 1   
     8     4     5 ar  
     9     4    30 ar  
    10     4    34 1   
    11     5    29 1   
    12     6     7 ar  
    13     6    10 ar  
    14     6    35 1   
    15     7    26 ar  
    16     7    36 1   
    17     8    26 1   
    18     8    27 1   
    19     9    10 1   
    20     9    28 2   
    21     9    29 1   
    22    10    12 ar  
    23    11    12 ar  
    24    11    25 1   
    25    11    26 ar  
    26    12    37 1   
    27    13    21 ar  
    28    13    22 ar  
    29    13    38 1   
    30    14    16 ar  
    31    14    21 ar  
    32    14    51 1   
    33    15    16 ar  
    34    15    22 ar  
    35    15    23 1   
    36    16    20 1   
    37    17    19 1   
    38    17    24 2   
    39    17    25 1   
    40    18    19 1   
    41    18    23 1   
    42    18    39 1   
    43    18    40 1   
    44    19    41 1   
    45    19    42 1   
    46    25    45 1   
    47    27    46 1   
    48    27    47 1   
    49    27    48 1   
    50    29    49 1   
    51    30    50 1   
    52    43    51 1   
    53    44    51 1   
@<TRIPOS>SUBSTRUCTURE
     1 AK5         1 TEMP              0 ****  ****    0 ROOT
