@<TRIPOS>MOLECULE
AK5
   51    53     1     0     0
SMALL
No Charge or Current Charge


@<TRIPOS>ATOM
      1 C28         -7.7730    -2.8980     0.8950 ca         1 AK5      -0.151500
      2 C27         -8.9140    -3.7150     0.9810 ca         1 AK5      -0.083000
      3 C26        -10.1110    -3.3240     0.3600 ca         1 AK5      -0.139000
      4 C24         -9.0280    -1.2960    -0.4330 ca         1 AK5      -0.151500
      5 C23         -7.8200    -1.6770     0.1830 ca         1 AK5      -0.016000
      6 C16         -5.0110     1.4340    -0.5960 ca         1 AK5      -0.064000
      7 C17         -4.1720     2.5150    -0.9080 ca         1 AK5      -0.192000
      8 O19         -1.9690     3.5630    -0.7940 os         1 AK5      -0.351100
      9 C20         -5.3920    -0.8640     0.4860 c          1 AK5       0.627700
     10 C15         -4.5160     0.3260     0.1310 ca         1 AK5      -0.172600
     11 C13         -2.3090     1.4200     0.2270 ca         1 AK5      -0.068000
     12 C14         -3.1600     0.3330     0.5360 ca         1 AK5      -0.031000
     13 C9           5.1370    -1.9950    -1.6330 ca         1 AK5       0.194900
     14 C7           7.0920    -0.9610    -1.0840 ca         1 AK5       0.427900
     15 C5           5.0030    -0.2340    -0.1620 ca         1 AK5       0.284300
     16 C6           6.4000    -0.0730    -0.2470 ca         1 AK5      -0.223900
     17 C3          -0.1260     0.6130     1.3420 c          1 AK5       0.607100
     18 C2           2.2840     0.2440     0.6590 c3         1 AK5       0.060600
     19 C1           1.3170     1.0940     1.5080 c3         1 AK5      -0.157400
     20 Br30         7.3220     1.3030     0.7400 br         1 AK5      -0.066100
     21 N8           6.4750    -1.9220    -1.7810 nb         1 AK5      -0.276000
     22 N10          4.3710    -1.2000    -0.8600 nb         1 AK5      -0.241000
     23 S4           4.0190     0.8480     0.8800 ss         1 AK5      -0.339300
     24 O12         -0.5080    -0.4350     1.8480 o          1 AK5      -0.571100
     25 N11         -0.9360     1.4720     0.6110 ns         1 AK5      -0.149000
     26 C18         -2.8230     2.5130    -0.5010 ca         1 AK5       0.128100
     27 C29         -2.3950     4.7230    -1.5300 c3         1 AK5       0.150900
     28 O21         -4.9400    -1.8140     1.1160 o          1 AK5      -0.576100
     29 N22         -6.7120    -0.7940     0.0510 ns         1 AK5      -0.144000
     30 C25        -10.1680    -2.1130    -0.3470 ca         1 AK5      -0.083000
     31 H28         -6.8680    -3.2330     1.3900 ha         1 AK5       0.126500
     32 H27         -8.8700    -4.6540     1.5300 ha         1 AK5       0.112500
     33 H26        -10.9930    -3.9580     0.4280 ha         1 AK5       0.114000
     34 H24         -9.0870    -0.3600    -0.9840 ha         1 AK5       0.126500
     35 H16         -6.0450     1.4780    -0.9300 ha         1 AK5       0.113000
     36 H17         -4.5910     3.3450    -1.4690 ha         1 AK5       0.122000
     37 H14         -2.7810    -0.5190     1.0910 ha         1 AK5       0.162000
     38 H9           4.6240    -2.7730    -2.1950 h5         1 AK5       0.051100
     39 H2           2.2250    -0.8090     0.9660 h1         1 AK5       0.094200
     40 H2A          2.0100     0.3120    -0.4030 h1         1 AK5       0.094200
     41 H1           1.4070     2.1420     1.1970 hc         1 AK5       0.070200
     42 H1A          1.6030     0.9930     2.5620 hc         1 AK5       0.070200
     43 HN31         8.9240    -0.0640    -0.9340 hn         1 AK5       0.507000
     44 HN3A         8.8540    -1.4020    -2.0290 hn         1 AK5       0.507000
     45 HN11        -0.4620     2.3040     0.2810 hn         1 AK5       0.163000
     46 H29         -1.5610     5.4260    -1.6470 h1         1 AK5       0.045367
     47 H29A        -2.7460     4.4430    -2.5320 h1         1 AK5       0.045367
     48 H29B        -3.2060     5.2440    -1.0050 h1         1 AK5       0.045367
     49 HN22        -6.9300     0.0490    -0.4610 hn         1 AK5       0.150000
     50 H25        -11.0950    -1.8080    -0.8280 ha         1 AK5       0.112500
     51 N31          8.4390    -0.9030    -1.2460 nv         1 AK5      -1.067900
@<TRIPOS>BOND
     1     1     2 ar  
     2     1     5 ar  
     3     1    31 1   
     4     2     3 ar  
     5     2    32 1   
     6     3    30 ar  
     7     3    33 1   
     8     4     5 ar  
     9     4    30 ar  
    10     4    34 1   
    11     5    29 1   
    12     6     7 ar  
    13     6    10 ar  
    14     6    35 1   
    15     7    26 ar  
    16     7    36 1   
    17     8    26 1   
    18     8    27 1   
    19     9    10 1   
    20     9    28 2   
    21     9    29 1   
    22    10    12 ar  
    23    11    12 ar  
    24    11    25 1   
    25    11    26 ar  
    26    12    37 1   
    27    13    21 ar  
    28    13    22 ar  
    29    13    38 1   
    30    14    16 ar  
    31    14    21 ar  
    32    14    51 1   
    33    15    16 ar  
    34    15    22 ar  
    35    15    23 1   
    36    16    20 1   
    37    17    19 1   
    38    17    24 2   
    39    17    25 1   
    40    18    19 1   
    41    18    23 1   
    42    18    39 1   
    43    18    40 1   
    44    19    41 1   
    45    19    42 1   
    46    25    45 1   
    47    27    46 1   
    48    27    47 1   
    49    27    48 1   
    50    29    49 1   
    51    30    50 1   
    52    43    51 1   
    53    44    51 1   
@<TRIPOS>SUBSTRUCTURE
     1 AK5         1 TEMP              0 ****  ****    0 ROOT
