@<TRIPOS>MOLECULE
AK6
   57    60     1     0     0
SMALL
bcc


@<TRIPOS>ATOM
      1 C30         -7.1060     1.1800     0.4630 ca         1 AK6      -0.024000
      2 C28         -9.0830    -0.0730    -0.0240 ca         1 AK6       0.435800
      3 C26         -7.2600    -0.5090    -1.2400 ca         1 AK6       0.441200
      4 C23          2.7170    -5.0910    -0.2140 c3         1 AK6       0.127700
      5 C22          7.3370     3.0710    -0.5010 ca         1 AK6      -0.165500
      6 C17          7.4780     1.8390     0.1390 ca         1 AK6       0.073600
      7 C20          9.5370     3.7310     0.2640 ca         1 AK6      -0.155000
      8 C12          2.9480    -2.7290    -0.1390 ca         1 AK6       0.127100
      9 C11          4.3160    -2.7780    -0.3690 ca         1 AK6      -0.210000
     10 C10          5.0630    -1.6090    -0.3920 ca         1 AK6      -0.083000
     11 C9           4.4560    -0.3790    -0.1770 ca         1 AK6      -0.172600
     12 C8           3.0790    -0.3300     0.0460 ca         1 AK6      -0.052000
     13 C7           2.3200    -1.4850     0.0690 ca         1 AK6       0.026600
     14 C3           0.0410    -0.5700    -0.1230 c          1 AK6       0.671100
     15 C2          -2.3990    -0.0370    -0.4560 c3         1 AK6       0.027700
     16 C1          -1.3820    -0.8750     0.2980 c3         1 AK6      -0.150400
     17 O15          4.6380     1.9600    -0.4840 o          1 AK6      -0.570100
     18 N16          6.5160     0.8230     0.1090 ns         1 AK6      -0.473100
     19 C21          8.3660     4.0010    -0.4300 ca         1 AK6      -0.103000
     20 C19          9.6770     2.5010     0.8930 ca         1 AK6      -0.103000
     21 C18          8.6590     1.5650     0.8330 ca         1 AK6      -0.165500
     22 N5           0.9410    -1.4870     0.3160 ns         1 AK6      -0.475100
     23 O6           0.3410     0.4110    -0.7770 o          1 AK6      -0.573100
     24 S4          -4.0630    -0.4850     0.1160 ss         1 AK6      -0.362200
     25 C25         -6.5040     0.4550    -0.5540 ca         1 AK6      -0.232600
     26 C29         -8.4430     0.9240     0.7500 ca         1 AK6      -0.204100
     27 C33         -9.4160     1.4200     1.6690 cc         1 AK6      -0.179200
     28 C32        -10.5660     0.7270     1.4250 cd         1 AK6      -0.105100
     29 N31        -10.3690    -0.1680     0.4090 na         1 AK6      -0.276100
     30 N27         -8.5310    -0.7820    -0.9950 nb         1 AK6      -0.682000
     31 H30         -6.5460     1.9280     1.0130 ha         1 AK6       0.142000
     32 H26         -6.7900    -1.0810    -2.0350 h4         1 AK6       0.022100
     33 H24         -4.7460     1.6770    -0.6990 h1         1 AK6       0.065200
     34 H24A        -4.8760     0.4420    -1.9540 h1         1 AK6       0.065200
     35 H23          3.1800    -5.2360    -1.1920 h1         1 AK6       0.045367
     36 H23A         3.4600    -5.2780     0.5650 h1         1 AK6       0.045367
     37 H23B         1.9010    -5.7990    -0.1020 h1         1 AK6       0.045367
     38 H20         10.3290     4.4660     0.3110 ha         1 AK6       0.132000
     39 H11          4.8160    -3.7190    -0.5540 ha         1 AK6       0.140000
     40 H10          6.1210    -1.6900    -0.6080 ha         1 AK6       0.133000
     41 H8           2.6080     0.6250     0.2270 ha         1 AK6       0.179000
     42 H2          -2.2360     1.0260    -0.2760 h1         1 AK6       0.073200
     43 H2A         -2.3270    -0.2150    -1.5300 h1         1 AK6       0.073200
     44 H1          -1.5850    -1.9400     0.1570 hc         1 AK6       0.072700
     45 H1A         -1.4620    -0.6890     1.3740 hc         1 AK6       0.072700
     46 HN16         6.8310    -0.0590     0.4810 hn         1 AK6       0.316500
     47 H21          8.2440     4.9520    -0.9330 ha         1 AK6       0.130500
     48 H19         10.5820     2.2660     1.4390 ha         1 AK6       0.130500
     49 H18          8.7790     0.6090     1.3310 ha         1 AK6       0.143500
     50 HN5          0.5710    -2.3100     0.7660 hn         1 AK6       0.330500
     51 H33         -9.2840     2.1880     2.4150 ha         1 AK6       0.159000
     52 H32        -11.5290     0.8040     1.9030 h4         1 AK6       0.165000
     53 HN31       -11.0630    -0.8000     0.0450 hn         1 AK6       0.310700
     54 C24         -5.0600     0.6520    -0.8990 c3         1 AK6       0.088000
     55 O13          2.1460    -3.8000    -0.0910 os         1 AK6      -0.328900
     56 C14          5.1980     0.9120    -0.2070 c          1 AK6       0.690700
     57 H22          6.4450     3.3120    -1.0550 ha         1 AK6       0.143500
@<TRIPOS>BOND
     1     1    25 ar  
     2     1    26 ar  
     3     1    31 1   
     4     2    26 ar  
     5     2    29 1   
     6     2    30 ar  
     7     3    25 ar  
     8     3    30 ar  
     9     3    32 1   
    10     4    35 1   
    11     4    36 1   
    12     4    37 1   
    13     4    55 1   
    14     5     6 ar  
    15     5    19 ar  
    16     5    57 1   
    17     6    18 1   
    18     6    21 ar  
    19     7    19 ar  
    20     7    20 ar  
    21     7    38 1   
    22     8     9 ar  
    23     8    13 ar  
    24     8    55 1   
    25     9    10 ar  
    26     9    39 1   
    27    10    11 ar  
    28    10    40 1   
    29    11    12 ar  
    30    11    56 1   
    31    12    13 ar  
    32    12    41 1   
    33    13    22 1   
    34    14    16 1   
    35    14    22 1   
    36    14    23 2   
    37    15    16 1   
    38    15    24 1   
    39    15    42 1   
    40    15    43 1   
    41    16    44 1   
    42    16    45 1   
    43    17    56 2   
    44    18    46 1   
    45    18    56 1   
    46    19    47 1   
    47    20    21 ar  
    48    20    48 1   
    49    21    49 1   
    50    22    50 1   
    51    24    54 1   
    52    25    54 1   
    53    26    27 1   
    54    27    28 2   
    55    27    51 1   
    56    28    29 1   
    57    28    52 1   
    58    29    53 1   
    59    33    54 1   
    60    34    54 1   
@<TRIPOS>SUBSTRUCTURE
     1 AK6         1 TEMP              0 ****  ****    0 ROOT
