@<TRIPOS>MOLECULE
AK6
   57    60     1     0     0
SMALL
No Charge or Current Charge


@<TRIPOS>ATOM
      1 C30         -7.3240     0.9810     0.1930 ca         1 AK6      -0.006000
      2 C28         -9.1460    -0.4240    -0.5730 ca         1 AK6       0.370500
      3 C26         -7.0110    -0.9140    -1.2920 ca         1 AK6       0.375900
      4 C23          2.2960    -4.8260    -0.4570 c3         1 AK6       0.150900
      5 C22          7.6700     3.1560     0.0480 ca         1 AK6      -0.147500
      6 C17          7.7540     1.7680    -0.2020 ca         1 AK6      -0.019000
      7 C20         10.0540     3.4020    -0.3880 ca         1 AK6      -0.137000
      8 C12          2.7260    -2.4360     0.0210 ca         1 AK6       0.127100
      9 C11          4.0850    -2.5440    -0.3380 ca         1 AK6      -0.192000
     10 C10          4.9290    -1.4250    -0.2730 ca         1 AK6      -0.065000
     11 C9           4.4300    -0.1720     0.1520 ca         1 AK6      -0.172600
     12 C8           3.0650    -0.0720     0.5100 ca         1 AK6      -0.034000
     13 C7           2.2080    -1.1960     0.4490 ca         1 AK6      -0.066000
     14 C3           0.0100    -0.1310     1.2840 c          1 AK6       0.604100
     15 C2          -2.3740     0.0770     0.4650 c3         1 AK6       0.075600
     16 C1          -1.4430    -0.5490     1.5200 c3         1 AK6      -0.150400
     17 O15          4.8580     2.1400     0.6030 o          1 AK6      -0.570100
     18 N16          6.6430     0.8810    -0.1320 ns         1 AK6      -0.147000
     19 C21          8.8150     3.9670    -0.0450 ca         1 AK6      -0.085000
     20 C19         10.1470     2.0250    -0.6420 ca         1 AK6      -0.085000
     21 C18          9.0020     1.2150    -0.5490 ca         1 AK6      -0.147500
     22 N5           0.8260    -1.1450     0.7990 ns         1 AK6      -0.149000
     23 O6           0.3960     1.0030     1.5400 o          1 AK6      -0.573100
     24 S4          -4.1200    -0.4490     0.7720 ss         1 AK6      -0.458000
     25 C25         -6.4610     0.1680    -0.5670 ca         1 AK6      -0.167300
     26 C29         -8.6810     0.6430     0.1600 ca         1 AK6      -0.138800
     27 C33         -9.7920     1.2650     0.8140 cc         1 AK6      -0.229200
     28 C32        -10.9180     0.5430     0.4520 cd         1 AK6      -0.155100
     29 N31        -10.5170    -0.5080    -0.4120 na         1 AK6      -0.326400
     30 N27         -8.3370    -1.2130    -1.3030 nb         1 AK6      -0.682000
     31 H30         -6.9590     1.8240     0.7750 ha         1 AK6       0.124000
     32 H26         -6.3700    -1.5630    -1.8880 h4         1 AK6       0.022100
     33 H24         -4.7820     1.5200    -0.5120 h1         1 AK6       0.065200
     34 H24A        -4.5500     0.1070    -1.5660 h1         1 AK6       0.065200
     35 H23          2.6740    -4.7980    -1.4860 h1         1 AK6       0.045367
     36 H23A         3.0870    -5.2100     0.2000 h1         1 AK6       0.045367
     37 H23B         1.4560    -5.5320    -0.4230 h1         1 AK6       0.045367
     38 H20         10.9390     4.0310    -0.4590 ha         1 AK6       0.114000
     39 H11          4.5060    -3.4880    -0.6710 ha         1 AK6       0.122000
     40 H10          5.9700    -1.5550    -0.5600 ha         1 AK6       0.115000
     41 H8           2.6830     0.8910     0.8320 ha         1 AK6       0.161000
     42 H2          -2.3120     1.1730     0.5130 h1         1 AK6       0.073200
     43 H2A         -2.0710    -0.2450    -0.5410 h1         1 AK6       0.073200
     44 H1          -1.5380    -1.6400     1.4670 hc         1 AK6       0.072700
     45 H1A         -1.7540    -0.1950     2.5090 hc         1 AK6       0.072700
     46 HN16         6.8670    -0.0660    -0.4030 hn         1 AK6       0.150000
     47 H21          8.7420     5.0350     0.1490 ha         1 AK6       0.112500
     48 H19         11.1060     1.5850    -0.9090 ha         1 AK6       0.112500
     49 H18          9.0890     0.1490    -0.7480 ha         1 AK6       0.125500
     50 HN5          0.3490    -2.0280     0.6610 hn         1 AK6       0.164000
     51 H33         -9.7760     2.1340     1.4710 ha         1 AK6       0.209000
     52 H32        -11.9580     0.6960     0.7390 h4         1 AK6       0.215000
     53 HN31       -11.1110    -1.2060    -0.8430 hn         1 AK6       0.361000
     54 C24         -4.9680     0.4410    -0.6070 c3         1 AK6       0.135900
     55 O13          1.8670    -3.5200    -0.0330 os         1 AK6      -0.352100
     56 C14          5.3130     1.0630     0.2330 c          1 AK6       0.623700
     57 H22          6.7300     3.6300     0.3110 ha         1 AK6       0.125500
@<TRIPOS>BOND
     1     1    25 ar  
     2     1    26 ar  
     3     1    31 1   
     4     2    26 ar  
     5     2    29 1   
     6     2    30 ar  
     7     3    25 ar  
     8     3    30 ar  
     9     3    32 1   
    10     4    35 1   
    11     4    36 1   
    12     4    37 1   
    13     4    55 1   
    14     5     6 ar  
    15     5    19 ar  
    16     5    57 1   
    17     6    18 1   
    18     6    21 ar  
    19     7    19 ar  
    20     7    20 ar  
    21     7    38 1   
    22     8     9 ar  
    23     8    13 ar  
    24     8    55 1   
    25     9    10 ar  
    26     9    39 1   
    27    10    11 ar  
    28    10    40 1   
    29    11    12 ar  
    30    11    56 1   
    31    12    13 ar  
    32    12    41 1   
    33    13    22 1   
    34    14    16 1   
    35    14    22 1   
    36    14    23 2   
    37    15    16 1   
    38    15    24 1   
    39    15    42 1   
    40    15    43 1   
    41    16    44 1   
    42    16    45 1   
    43    17    56 2   
    44    18    46 1   
    45    18    56 1   
    46    19    47 1   
    47    20    21 ar  
    48    20    48 1   
    49    21    49 1   
    50    22    50 1   
    51    24    54 1   
    52    25    54 1   
    53    26    27 1   
    54    27    28 2   
    55    27    51 1   
    56    28    29 1   
    57    28    52 1   
    58    29    53 1   
    59    33    54 1   
    60    34    54 1   
@<TRIPOS>SUBSTRUCTURE
     1 AK6         1 TEMP              0 ****  ****    0 ROOT
