@<TRIPOS>MOLECULE
AK7
   45    47     1     0     0
SMALL
No Charge or Current Charge


@<TRIPOS>ATOM
      1 N29          9.3140     1.7380     0.5630 nv         1 AK7      -1.058900
      2 C24         -6.6110    -1.0620    -1.5670 ca         1 AK7      -0.101000
      3 C23         -7.9870    -1.0470    -1.8500 ca         1 AK7      -0.090000
      4 C22         -8.8810    -0.3810    -0.9970 ca         1 AK7      -0.086000
      5 C16         -3.6060    -0.9130    -0.6520 c          1 AK7       0.671100
      6 O18         -3.6130    -1.5530    -1.6930 o          1 AK7      -0.551100
      7 C20         -7.0210     0.2560     0.4330 ca         1 AK7      -0.127000
      8 C12         -1.1680    -0.9720    -0.1810 cc         1 AK7       0.591300
      9 C14          0.5850    -1.8630    -1.2170 cd         1 AK7       0.308900
     10 C10          1.2350    -1.2920    -0.1460 cc         1 AK7      -0.225300
     11 C9           2.7120    -1.3190     0.1590 c3         1 AK7      -0.017100
     12 C8           3.4030     0.0370    -0.0990 c3         1 AK7       0.229800
     13 C4           6.2800     3.1440    -0.4600 ca         1 AK7       0.212900
     14 C6           5.7830     0.9790     0.0810 ca         1 AK7       0.439900
     15 C2           7.9950     1.8350     0.2690 ca         1 AK7       0.433900
     16 C1           7.1240     0.7500     0.4170 ca         1 AK7      -0.295900
     17 Br30         7.7350    -0.9680     1.0510 br         1 AK7      -0.102100
     18 N5           5.3520     2.1730    -0.3590 nb         1 AK7      -0.300000
     19 N3           7.5910     3.0330    -0.1650 nb         1 AK7      -0.298000
     20 N13         -0.7890    -1.6760    -1.2340 nd         1 AK7      -0.644000
     21 S11          0.1090    -0.4860     0.9050 ss         1 AK7      -0.099400
     22 N17         -4.7390    -0.3820    -0.0550 ns         1 AK7      -0.164000
     23 C19         -6.1160    -0.4090    -0.4170 ca         1 AK7      -0.008000
     24 C21         -8.4060     0.2850     0.1520 ca         1 AK7      -0.166300
     25 C25         -9.3760     1.0070     1.0970 c3         1 AK7       0.356300
     26 F26        -10.4950     1.4320     0.4660 f          1 AK7      -0.113333
     27 F27         -9.7760     0.1970     2.1030 f          1 AK7      -0.113333
     28 F28         -8.8180     2.1000     1.6680 f          1 AK7      -0.113333
     29 HN29         9.8440     2.5990     0.6720 hn         1 AK7       0.497000
     30 HN2A         9.6270     0.9360     1.1050 hn         1 AK7       0.497000
     31 H23         -8.3630    -1.5560    -2.7350 ha         1 AK7       0.125000
     32 H22         -9.9430    -0.3890    -1.2330 ha         1 AK7       0.135000
     33 H20         -6.6430     0.7540     1.3230 ha         1 AK7       0.122000
     34 H14          1.0570    -2.4240    -2.0140 h4         1 AK7       0.046100
     35 H9           2.8630    -1.6050     1.2070 hc         1 AK7       0.060700
     36 H9A          3.2000    -2.0900    -0.4500 hc         1 AK7       0.060700
     37 H8           3.2460     0.3220    -1.1490 h1         1 AK7       0.063700
     38 H8A          2.9290     0.8050     0.5290 h1         1 AK7       0.063700
     39 H4           5.9380     4.1150    -0.8150 h5         1 AK7       0.045100
     40 HN17        -4.5610     0.1230     0.8030 hn         1 AK7       0.149000
     41 N7           4.8470    -0.0370     0.1960 nu         1 AK7      -0.921100
     42 N15         -2.4730    -0.6280     0.0730 ns         1 AK7      -0.498400
     43 H24         -5.9540    -1.5880    -2.2510 ha         1 AK7       0.155000
     44 HN7          5.2210    -0.9230     0.5370 hn         1 AK7       0.501000
     45 HN15        -2.6310    -0.0890     0.9110 hn         1 AK7       0.328500
@<TRIPOS>BOND
     1     1    15 1   
     2     1    29 1   
     3     1    30 1   
     4     2     3 ar  
     5     2    23 ar  
     6     2    43 1   
     7     3     4 ar  
     8     3    31 1   
     9     4    24 ar  
    10     4    32 1   
    11     5     6 2   
    12     5    22 1   
    13     5    42 1   
    14     7    23 ar  
    15     7    24 ar  
    16     7    33 1   
    17     8    20 2   
    18     8    21 1   
    19     8    42 1   
    20     9    10 2   
    21     9    20 1   
    22     9    34 1   
    23    10    11 1   
    24    10    21 1   
    25    11    12 1   
    26    11    35 1   
    27    11    36 1   
    28    12    37 1   
    29    12    38 1   
    30    12    41 1   
    31    13    18 ar  
    32    13    19 ar  
    33    13    39 1   
    34    14    16 ar  
    35    14    18 ar  
    36    14    41 1   
    37    15    16 ar  
    38    15    19 ar  
    39    16    17 1   
    40    22    23 1   
    41    22    40 1   
    42    24    25 1   
    43    25    26 1   
    44    25    27 1   
    45    25    28 1   
    46    41    44 1   
    47    42    45 1   
@<TRIPOS>SUBSTRUCTURE
     1 AK7         1 TEMP              0 ****  ****    0 ROOT
