@<TRIPOS>MOLECULE
AK7
   45    47     1     0     0
SMALL
abcg2


@<TRIPOS>ATOM
      1 N29          9.0000     2.1160     0.2590 nv         1 AK7      -1.058900
      2 C24         -6.3580    -0.9870    -1.5250 ca         1 AK7      -0.101000
      3 C23         -7.6600    -0.8040    -1.9600 ca         1 AK7      -0.090000
      4 C22         -8.5770    -0.0680    -1.2250 ca         1 AK7      -0.086000
      5 C16         -3.5300    -0.9630    -0.4090 c          1 AK7       0.671100
      6 O18         -3.4740    -1.3260    -1.5620 o          1 AK7      -0.551100
      7 C20         -6.8620     0.3310     0.4210 ca         1 AK7      -0.127000
      8 C12         -1.1570    -1.2920     0.0830 cc         1 AK7       0.591300
      9 C14          0.5330    -2.2640    -0.9000 cd         1 AK7       0.308900
     10 C10          1.2650    -1.5450    -0.0150 cc         1 AK7      -0.225300
     11 C9           2.7410    -1.5070     0.1750 c3         1 AK7      -0.017100
     12 C8           3.3400    -0.1520    -0.1930 c3         1 AK7       0.229800
     13 C4           5.6930     3.1620     0.0710 ca         1 AK7       0.212900
     14 C6           5.5480     0.8990     0.0340 ca         1 AK7       0.439900
     15 C2           7.6600     2.0450     0.1920 ca         1 AK7       0.433900
     16 C1           6.9480     0.8440     0.1280 ca         1 AK7      -0.295900
     17 BR30         7.8530    -0.8100     0.1760 br         1 AK7      -0.102100
     18 N5           4.9290     2.0900     0.0050 nb         1 AK7      -0.300000
     19 N3           7.0040     3.2200     0.1600 nb         1 AK7      -0.298000
     20 N13         -0.8270    -2.1290    -0.8380 nd         1 AK7      -0.644000
     21 S11          0.1810    -0.5960     0.9500 ss         1 AK7      -0.099400
     22 N17         -4.6690    -0.5480     0.2240 ns         1 AK7      -0.164000
     23 C19         -5.9450    -0.4110    -0.3210 ca         1 AK7      -0.008000
     24 C21         -8.1650     0.4970    -0.0270 ca         1 AK7      -0.166300
     25 C25         -9.1120     1.2800     0.8280 c3         1 AK7       0.356300
     26 F26        -10.2730     1.5270     0.2170 f          1 AK7      -0.113333
     27 F27         -9.3990     0.6310     1.9670 f          1 AK7      -0.113333
     28 F28         -8.5980     2.4650     1.1870 f          1 AK7      -0.113333
     29 HN29         9.4040     3.0170     0.4530 hn         1 AK7       0.497000
     30 HN2A         9.5630     1.3170     0.4920 hn         1 AK7       0.497000
     31 H23         -7.9660    -1.2540    -2.8940 ha         1 AK7       0.125000
     32 H22         -9.5880     0.0500    -1.5900 ha         1 AK7       0.135000
     33 H20         -6.5440     0.7800     1.3550 ha         1 AK7       0.122000
     34 H14          0.9650    -2.9410    -1.6250 h4         1 AK7       0.046100
     35 H9           2.9990    -1.7500     1.2090 hc         1 AK7       0.060700
     36 H9A          3.1770    -2.2890    -0.4520 hc         1 AK7       0.060700
     37 H8           3.0730     0.1020    -1.2240 h1         1 AK7       0.063700
     38 H8A          2.9240     0.6270     0.4450 h1         1 AK7       0.063700
     39 H4           5.1750     4.1160     0.0490 h5         1 AK7       0.045100
     40 HN17        -4.5810    -0.2190     1.1730 hn         1 AK7       0.149000
     41 N7           4.7740    -0.1970    -0.0140 nu         1 AK7      -0.921100
     42 N15         -2.4340    -0.9190     0.4320 ns         1 AK7      -0.498400
     43 H24         -5.6810    -1.5770    -2.1200 ha         1 AK7       0.155000
     44 HN7          5.2160    -1.0910    -0.1580 hn         1 AK7       0.501000
     45 HN15        -2.5460    -0.5080     1.3470 hn         1 AK7       0.328500
@<TRIPOS>BOND
     1     1    15 1   
     2     1    29 1   
     3     1    30 1   
     4     2     3 ar  
     5     2    23 ar  
     6     2    43 1   
     7     3     4 ar  
     8     3    31 1   
     9     4    24 ar  
    10     4    32 1   
    11     5     6 2   
    12     5    22 1   
    13     5    42 1   
    14     7    23 ar  
    15     7    24 ar  
    16     7    33 1   
    17     8    20 2   
    18     8    21 1   
    19     8    42 1   
    20     9    10 2   
    21     9    20 1   
    22     9    34 1   
    23    10    11 1   
    24    10    21 1   
    25    11    12 1   
    26    11    35 1   
    27    11    36 1   
    28    12    37 1   
    29    12    38 1   
    30    12    41 1   
    31    13    18 ar  
    32    13    19 ar  
    33    13    39 1   
    34    14    16 ar  
    35    14    18 ar  
    36    14    41 1   
    37    15    16 ar  
    38    15    19 ar  
    39    16    17 1   
    40    22    23 1   
    41    22    40 1   
    42    24    25 1   
    43    25    26 1   
    44    25    27 1   
    45    25    28 1   
    46    41    44 1   
    47    42    45 1   
@<TRIPOS>SUBSTRUCTURE
     1 AK7         1 TEMP              0 ****  ****    0 ROOT
