@<TRIPOS>MOLECULE
AK8
   57    60     1     0     0
SMALL
abcg2


@<TRIPOS>ATOM
      1 N1          -6.0540     0.8560    -0.1980 nb         1 AK8      -0.243000
      2 N3          -3.5670    -2.6070    -0.2260 nb         1 AK8      -0.739000
      3 C4          -8.1660     0.8980     1.4860 ca         1 AK8       0.151900
      4 C5          -5.6610    -1.4880     0.1010 cp         1 AK8      -0.223500
      5 C6          -6.3230    -2.6540    -0.2500 ca         1 AK8      -0.031000
      6 C7          -5.6030    -3.7870    -0.6060 ca         1 AK8      -0.206000
      7 C8          -4.2250    -3.7050    -0.5920 ca         1 AK8       0.386900
      8 C10         -7.0560     4.3520    -0.4040 c3         1 AK8       0.234100
      9 C13          0.0070    -0.3300     1.1100 ca         1 AK8      -0.115000
     10 C15         -0.4720     0.2180    -1.1800 ca         1 AK8      -0.159000
     11 C17         -2.8090     0.2450    -2.1030 c3         1 AK8      -0.054800
     12 C20          5.6650    -1.4790     0.5330 ca         1 AK8      -0.098000
     13 C21          6.9830    -1.7920     0.8180 ca         1 AK8      -0.092000
     14 C22          8.0200    -0.9250     0.5050 ca         1 AK8      -0.087000
     15 C24          6.3960     0.6160    -0.3900 ca         1 AK8      -0.127000
     16 C1          -6.7710     1.9590     0.0620 ca         1 AK8       0.387900
     17 N2          -7.8230     2.0260     0.8870 nb         1 AK8      -0.245000
     18 C3          -7.4970    -0.2980     1.2940 ca         1 AK8      -0.284000
     19 C2          -6.4170    -0.2580     0.4140 cp         1 AK8       0.239500
     20 C9          -4.2590    -1.5460     0.1160 ca         1 AK8       0.614300
     21 O1          -3.6010    -0.4590     0.5560 os         1 AK8      -0.350400
     22 C11         -2.2550    -0.3390     0.2900 ca         1 AK8       0.093100
     23 C16         -1.8350     0.0430    -0.9820 ca         1 AK8      -0.044300
     24 C12         -1.3510    -0.5220     1.3180 ca         1 AK8      -0.078000
     25 C14          0.4580     0.0330    -0.1570 ca         1 AK8      -0.014000
     26 N5           1.8010     0.2830    -0.4600 ns         1 AK8      -0.162000
     27 C18          2.8900    -0.3070     0.1180 c          1 AK8       0.668100
     28 O2           2.8240    -1.1280     1.0140 o          1 AK8      -0.599100
     29 N6           4.0690     0.1350    -0.4270 ns         1 AK8      -0.167000
     30 C19          5.3580    -0.2580    -0.0730 ca         1 AK8      -0.008000
     31 C23          7.7130     0.2810    -0.1070 ca         1 AK8      -0.166300
     32 C25          8.7840     1.2540    -0.4910 c3         1 AK8       0.355300
     33 F2           9.9980     0.8720    -0.0850 f          1 AK8      -0.114000
     34 F3           8.8500     1.4170    -1.8210 f          1 AK8      -0.114000
     35 F1           8.5620     2.4700     0.0290 f          1 AK8      -0.114000
     36 H4          -9.0150     0.9470     2.1590 h4         1 AK8       0.019100
     37 H6          -7.4060    -2.6670    -0.2730 ha         1 AK8       0.125000
     38 H7          -6.1000    -4.7010    -0.8990 ha         1 AK8       0.130000
     39 H8          -3.6170    -4.5540    -0.8800 h4         1 AK8       0.023100
     40 H10         -6.5670     5.0740    -1.0520 h1         1 AK8       0.040367
     41 H10A        -8.1090     4.3030    -0.6820 h1         1 AK8       0.040367
     42 H10B        -6.9960     4.7170     0.6230 h1         1 AK8       0.040367
     43 H13          0.6890    -0.4550     1.9350 ha         1 AK8       0.144000
     44 H15         -0.1240     0.5120    -2.1650 ha         1 AK8       0.109000
     45 H17         -3.1430    -0.7120    -2.5110 hc         1 AK8       0.052033
     46 H17A        -3.7010     0.7790    -1.7750 hc         1 AK8       0.052033
     47 H17B        -2.3530     0.8050    -2.9170 hc         1 AK8       0.052033
     48 H20          4.8900    -2.1880     0.7770 ha         1 AK8       0.151000
     49 H21          7.2080    -2.7390     1.2890 ha         1 AK8       0.124000
     50 H22          9.0390    -1.2020     0.7350 ha         1 AK8       0.134000
     51 H24          6.1590     1.5640    -0.8610 ha         1 AK8       0.122000
     52 HN4         -5.5950     3.0210    -1.1710 hn         1 AK8       0.508000
     53 H3          -7.7890    -1.2010     1.8090 ha         1 AK8       0.134000
     54 H12         -1.7070    -0.8030     2.3010 ha         1 AK8       0.130000
     55 HN5          1.9540     0.8180    -1.3010 hn         1 AK8       0.147000
     56 HN6          4.0240     0.9310    -1.0460 hn         1 AK8       0.150000
     57 N4          -6.3980     3.0820    -0.5680 nu         1 AK8      -0.927100
@<TRIPOS>BOND
     1     1    16 ar  
     2     1    19 ar  
     3     2     7 ar  
     4     2    20 ar  
     5     3    17 ar  
     6     3    18 ar  
     7     3    36 1   
     8     4     5 ar  
     9     4    19 1   
    10     4    20 ar  
    11     5     6 ar  
    12     5    37 1   
    13     6     7 ar  
    14     6    38 1   
    15     7    39 1   
    16     8    40 1   
    17     8    41 1   
    18     8    42 1   
    19     8    57 1   
    20     9    24 ar  
    21     9    25 ar  
    22     9    43 1   
    23    10    23 ar  
    24    10    25 ar  
    25    10    44 1   
    26    11    23 1   
    27    11    45 1   
    28    11    46 1   
    29    11    47 1   
    30    12    13 ar  
    31    12    30 ar  
    32    12    48 1   
    33    13    14 ar  
    34    13    49 1   
    35    14    31 ar  
    36    14    50 1   
    37    15    30 ar  
    38    15    31 ar  
    39    15    51 1   
    40    16    17 ar  
    41    16    57 1   
    42    18    19 ar  
    43    18    53 1   
    44    20    21 1   
    45    21    22 1   
    46    22    23 ar  
    47    22    24 ar  
    48    24    54 1   
    49    25    26 1   
    50    26    27 1   
    51    26    55 1   
    52    27    28 2   
    53    27    29 1   
    54    29    30 1   
    55    29    56 1   
    56    31    32 1   
    57    32    33 1   
    58    32    34 1   
    59    32    35 1   
    60    52    57 1   
@<TRIPOS>SUBSTRUCTURE
     1 AK8         1 TEMP              0 ****  ****    0 ROOT
