@<TRIPOS>MOLECULE
AK8
   57    60     1     0     0
SMALL
No Charge or Current Charge


@<TRIPOS>ATOM
      1 N1          -6.0340     0.8910    -0.0550 nb         1 AK8      -0.243000
      2 N3          -3.8160    -2.8260    -0.5750 nb         1 AK8      -0.739000
      3 C4          -8.4280     0.8230     1.2950 ca         1 AK8       0.151900
      4 C5          -5.8700    -1.5420    -0.2380 cp         1 AK8      -0.223500
      5 C6          -6.6170    -2.6090    -0.7930 ca         1 AK8      -0.031000
      6 C7          -5.9440    -3.7540    -1.2350 ca         1 AK8      -0.206000
      7 C8          -4.5510    -3.8210    -1.1100 ca         1 AK8       0.386900
      8 C10         -6.6000     4.5500     0.3470 c3         1 AK8       0.234100
      9 C13         -0.1180    -0.7490     1.1690 ca         1 AK8      -0.115000
     10 C15         -0.4550     0.0560    -1.0990 ca         1 AK8      -0.159000
     11 C17         -2.7680     0.3040    -2.1140 c3         1 AK8      -0.054800
     12 C20          5.9200    -0.5410     1.4740 ca         1 AK8      -0.098000
     13 C21          7.2930    -0.5790     1.7670 ca         1 AK8      -0.092000
     14 C22          8.2330    -0.1520     0.8160 ca         1 AK8      -0.087000
     15 C24          6.4260     0.3490    -0.7290 ca         1 AK8      -0.127000
     16 C1          -6.7010     1.9850     0.3460 ca         1 AK8       0.387900
     17 N2          -7.8730     2.0150     1.0090 nb         1 AK8      -0.245000
     18 C3          -7.8090    -0.3780     0.9170 ca         1 AK8      -0.284000
     19 C2          -6.5720    -0.3110     0.2340 cp         1 AK8       0.239500
     20 C9          -4.4590    -1.7120    -0.1550 ca         1 AK8       0.614300
     21 O1          -3.7290    -0.7110     0.4470 os         1 AK8      -0.350400
     22 C11         -2.3720    -0.5700     0.2610 ca         1 AK8       0.093100
     23 C16         -1.8510    -0.0810    -0.9580 ca         1 AK8      -0.044300
     24 C12         -1.5080    -0.8910     1.3190 ca         1 AK8      -0.078000
     25 C14          0.4210    -0.2760    -0.0480 ca         1 AK8      -0.014000
     26 N5           1.8150    -0.1050    -0.2800 ns         1 AK8      -0.162000
     27 C18          2.9320    -0.3430     0.5090 c          1 AK8       0.668100
     28 O2           2.8900    -0.7880     1.6500 o          1 AK8      -0.599100
     29 N6           4.1030    -0.0130    -0.1600 ns         1 AK8      -0.167000
     30 C19          5.4740    -0.0770     0.2170 ca         1 AK8      -0.008000
     31 C23          7.8090     0.3240    -0.4420 ca         1 AK8      -0.166300
     32 C25          8.8300     0.7830    -1.4920 c3         1 AK8       0.355300
     33 F2           9.9780     1.2340    -0.9360 f          1 AK8      -0.114000
     34 F3           9.1660    -0.2280    -2.3250 f          1 AK8      -0.114000
     35 F1           8.3560     1.7890    -2.2630 f          1 AK8      -0.114000
     36 H4          -9.3770     0.8330     1.8280 h4         1 AK8       0.019100
     37 H6          -7.6990    -2.5420    -0.8920 ha         1 AK8       0.125000
     38 H7          -6.4900    -4.5860    -1.6720 ha         1 AK8       0.130000
     39 H8          -4.0050    -4.7030    -1.4450 h4         1 AK8       0.023100
     40 H10         -5.9070     5.3120    -0.0320 h1         1 AK8       0.040367
     41 H10A        -7.5830     4.7160    -0.1140 h1         1 AK8       0.040367
     42 H10B        -6.6980     4.6810     1.4340 h1         1 AK8       0.040367
     43 H13          0.5170    -1.0110     2.0090 ha         1 AK8       0.144000
     44 H15         -0.0470     0.4260    -2.0370 ha         1 AK8       0.109000
     45 H17         -3.1810    -0.5870    -2.6010 hc         1 AK8       0.052033
     46 H17A        -3.6070     0.9190    -1.7680 hc         1 AK8       0.052033
     47 H17B        -2.2360     0.8820    -2.8790 hc         1 AK8       0.052033
     48 H20          5.2240    -0.8800     2.2350 ha         1 AK8       0.151000
     49 H21          7.6300    -0.9420     2.7350 ha         1 AK8       0.124000
     50 H22          9.2930    -0.1970     1.0630 ha         1 AK8       0.134000
     51 H24          6.0850     0.7000    -1.7010 ha         1 AK8       0.122000
     52 HN4         -5.2100     3.1260    -0.4610 hn         1 AK8       0.508000
     53 H3          -8.2680    -1.3320     1.1560 ha         1 AK8       0.134000
     54 H12         -1.9180    -1.2550     2.2570 ha         1 AK8       0.130000
     55 HN5          2.0280     0.2610    -1.1980 hn         1 AK8       0.147000
     56 HN6          3.9580     0.3410    -1.0960 hn         1 AK8       0.150000
     57 N4          -6.1030     3.1970     0.0320 nu         1 AK8      -0.927100
@<TRIPOS>BOND
     1     1    16 ar  
     2     1    19 ar  
     3     2     7 ar  
     4     2    20 ar  
     5     3    17 ar  
     6     3    18 ar  
     7     3    36 1   
     8     4     5 ar  
     9     4    19 1   
    10     4    20 ar  
    11     5     6 ar  
    12     5    37 1   
    13     6     7 ar  
    14     6    38 1   
    15     7    39 1   
    16     8    40 1   
    17     8    41 1   
    18     8    42 1   
    19     8    57 1   
    20     9    24 ar  
    21     9    25 ar  
    22     9    43 1   
    23    10    23 ar  
    24    10    25 ar  
    25    10    44 1   
    26    11    23 1   
    27    11    45 1   
    28    11    46 1   
    29    11    47 1   
    30    12    13 ar  
    31    12    30 ar  
    32    12    48 1   
    33    13    14 ar  
    34    13    49 1   
    35    14    31 ar  
    36    14    50 1   
    37    15    30 ar  
    38    15    31 ar  
    39    15    51 1   
    40    16    17 ar  
    41    16    57 1   
    42    18    19 ar  
    43    18    53 1   
    44    20    21 1   
    45    21    22 1   
    46    22    23 ar  
    47    22    24 ar  
    48    24    54 1   
    49    25    26 1   
    50    26    27 1   
    51    26    55 1   
    52    27    28 2   
    53    27    29 1   
    54    29    30 1   
    55    29    56 1   
    56    31    32 1   
    57    32    33 1   
    58    32    34 1   
    59    32    35 1   
    60    52    57 1   
@<TRIPOS>SUBSTRUCTURE
     1 AK8         1 TEMP              0 ****  ****    0 ROOT
