@<TRIPOS>MOLECULE
AKA
  105   111     1     0     0
SMALL
abcg2


@<TRIPOS>ATOM
      1 O15        -12.6500    -0.9630    -0.3750 o          1 AKA      -0.505100
      2 C42        -11.4720    -1.2260    -0.3440 c          1 AKA       0.545100
      3 C40        -10.9230    -2.4670     0.3120 c6         1 AKA      -0.186400
      4 C38         -9.6180    -2.2120     1.0640 c6         1 AKA      -0.094400
      5 C39        -10.4230    -0.3530    -1.0260 c6         1 AKA       0.087300
      6 C41        -10.9370     1.0050    -1.4440 c3         1 AKA      -0.078100
      7 O14         -9.3220    -0.1750    -0.1580 os         1 AKA      -0.485000
      8 C37         -8.6840    -1.3810     0.2090 c6         1 AKA       0.398300
      9 O13         -7.5600    -1.0540     0.9370 os         1 AKA      -0.438000
     10 C35         -6.3800    -0.7880     0.2030 c6         1 AKA       0.144300
     11 C34         -5.7150     0.4730     0.7710 c6         1 AKA       0.183300
     12 C36         -6.5660     1.7150     0.6060 c3         1 AKA      -0.083100
     13 O11         -4.4870     0.7000     0.1100 os         1 AKA      -0.490000
     14 C33         -5.4360    -1.9770     0.3140 c6         1 AKA       0.150300
     15 O12         -6.0490    -3.0850    -0.3030 oh         1 AKA      -0.721000
     16 C32         -4.0910    -1.6320    -0.3120 c6         1 AKA      -0.140400
     17 C31         -3.5560    -0.3460     0.2870 c6         1 AKA       0.403300
     18 O4          -2.3980     0.0080    -0.3670 os         1 AKA      -0.427000
     19 C4          -1.4370     0.7480     0.3600 c6         1 AKA       0.154300
     20 C5          -0.8150     1.7820    -0.5710 c6         1 AKA       0.168300
     21 C6          -1.8290     2.7400    -1.1580 c3         1 AKA      -0.083100
     22 O5          -0.1500     1.1430    -1.6530 os         1 AKA      -0.471000
     23 C3          -0.3450    -0.1950     0.8860 c6         1 AKA       0.159500
     24 N3          -0.9010    -1.1650     1.8230 n3         1 AKA      -0.726600
     25 C8          -0.1310    -2.3820     1.9690 c3         1 AKA       0.153100
     26 C7          -1.1260    -0.5630     3.1200 c3         1 AKA       0.153100
     27 C2           0.3340    -0.8310    -0.3230 c6         1 AKA      -0.091400
     28 C1           0.8490     0.2330    -1.2810 c6         1 AKA       0.388300
     29 O7           1.9310     0.8570    -0.6650 os         1 AKA      -0.467000
     30 C26          2.8370     1.5560    -1.4980 c6         1 AKA       0.252600
     31 C25          2.5620     3.0530    -1.5810 c6         1 AKA      -0.090400
     32 C9           3.0390     3.8430    -0.3690 c6         1 AKA       0.192000
     33 O9           2.4020     3.2930     0.7690 oh         1 AKA      -0.639000
     34 C13          2.6740     5.3210    -0.5480 c3         1 AKA      -0.106400
     35 C14          3.0770     6.2310     0.6050 c3         1 AKA      -0.094100
     36 C20          4.2120     1.2580    -0.9510 ca         1 AKA      -0.118300
     37 C19          4.9860     2.2250    -0.3340 ca         1 AKA       0.011700
     38 C10          4.5520     3.6600    -0.2670 c6         1 AKA      -0.073100
     39 C11          6.2260     1.8810     0.2250 ca         1 AKA      -0.118000
     40 C18          6.6930     0.5900     0.1630 ca         1 AKA      -0.075600
     41 C17          5.9340    -0.4110    -0.4740 ca         1 AKA      -0.273600
     42 C23          4.6890    -0.0670    -1.0310 ca         1 AKA       0.247100
     43 O6           3.9270    -0.9520    -1.6560 oh         1 AKA      -0.538100
     44 C12          8.0000     0.2670     0.7820 c          1 AKA       0.586300
     45 O3           8.6610     1.1210     1.3340 o          1 AKA      -0.506100
     46 C15          8.4760    -1.1370     0.7090 ca         1 AKA      -0.081600
     47 C28          9.6870    -1.4610     1.2880 ca         1 AKA      -0.112000
     48 C27         10.1450    -2.7770     1.2270 ca         1 AKA      -0.048000
     49 C24          9.4080    -3.7550     0.5980 ca         1 AKA      -0.153000
     50 C16          7.7020    -2.1190     0.0590 ca         1 AKA      -0.257600
     51 C22          6.4210    -1.7760    -0.5500 c          1 AKA       0.636300
     52 O8           5.7540    -2.6550    -1.1280 o          1 AKA      -0.632100
     53 C21          8.1790    -3.4430     0.0040 ca         1 AKA       0.222100
     54 O2           7.5190    -4.4300    -0.5900 oh         1 AKA      -0.537100
     55 H401       -10.7400    -3.1830    -0.4990 hc         1 AKA       0.069700
     56 H402       -11.6780    -2.9130     0.9600 hc         1 AKA       0.069700
     57 H381        -9.1440    -3.1600     1.3200 hc         1 AKA       0.067700
     58 H382        -9.8210    -1.6790     1.9970 hc         1 AKA       0.067700
     59 H39        -10.1040    -0.9120    -1.9250 h1         1 AKA       0.045700
     60 H411       -11.3080     1.5730    -0.5910 hc         1 AKA       0.051700
     61 H412       -10.1380     1.5750    -1.9170 hc         1 AKA       0.051700
     62 H413       -11.7460     0.9030    -2.1640 hc         1 AKA       0.051700
     63 H37         -8.4210    -1.9360    -0.7070 h2         1 AKA       0.038700
     64 H35         -6.6080    -0.6100    -0.8580 h1         1 AKA       0.070700
     65 H34         -5.5350     0.3060     1.8460 h1         1 AKA       0.037700
     66 H361        -7.5070     1.6120     1.1410 hc         1 AKA       0.050033
     67 H362        -6.0430     2.5840     1.0050 hc         1 AKA       0.050033
     68 H363        -6.7960     1.9010    -0.4440 hc         1 AKA       0.050033
     69 H33         -5.2790    -2.1730     1.3870 h1         1 AKA       0.039700
     70 H12         -5.5400    -3.8720    -0.0880 ho         1 AKA       0.507000
     71 H321        -4.2060    -1.5100    -1.3940 hc         1 AKA       0.069700
     72 H322        -3.3720    -2.4360    -0.1370 hc         1 AKA       0.069700
     73 H31         -3.3830    -0.4900     1.3660 h2         1 AKA       0.034700
     74 H4          -1.9070     1.2950     1.1870 h1         1 AKA       0.050700
     75 H5          -0.0920     2.3580     0.0230 h1         1 AKA       0.060700
     76 H6'1        -2.3660     3.2530    -0.3600 hc         1 AKA       0.046033
     77 H6'2        -1.3350     3.4970    -1.7680 hc         1 AKA       0.046033
     78 H6'3        -2.5630     2.2240    -1.7760 hc         1 AKA       0.046033
     79 H3           0.4050     0.4340     1.3970 h1         1 AKA       0.053700
     80 H8'1         0.9060    -2.2180     2.3030 h1         1 AKA       0.030367
     81 H8'2        -0.6140    -3.0160     2.7140 h1         1 AKA       0.030367
     82 H8'3        -0.1030    -2.9490     1.0400 h1         1 AKA       0.030367
     83 H7'1        -1.7630     0.3190     3.0420 h1         1 AKA       0.030367
     84 H7'2        -1.6390    -1.2690     3.7740 h1         1 AKA       0.030367
     85 H7'3        -0.1940    -0.2530     3.6180 h1         1 AKA       0.030367
     86 H2'1        -0.3710    -1.4760    -0.8530 hc         1 AKA       0.066200
     87 H2'2         1.1780    -1.4510    -0.0240 hc         1 AKA       0.066200
     88 H1           1.1660    -0.2360    -2.2220 h2         1 AKA       0.069700
     89 H7           2.7720     1.1580    -2.5200 h1         1 AKA       0.053700
     90 H81          1.4990     3.2170    -1.7640 hc         1 AKA       0.062200
     91 H82          3.0870     3.4410    -2.4600 hc         1 AKA       0.062200
     92 HO9          2.7550     3.7310     1.5520 ho         1 AKA       0.438000
     93 H131         1.5910     5.3860    -0.7010 hc         1 AKA       0.051700
     94 H132         3.1350     5.6840    -1.4710 hc         1 AKA       0.051700
     95 H141         2.7430     7.2510     0.4140 hc         1 AKA       0.035033
     96 H142         2.6250     5.9230     1.5500 hc         1 AKA       0.035033
     97 H143         4.1580     6.2670     0.7450 hc         1 AKA       0.035033
     98 H101         5.0360     4.2040    -1.0850 hc         1 AKA       0.061700
     99 H102         4.9400     4.1040     0.6530 hc         1 AKA       0.061700
    100 H11          6.8130     2.6460     0.7170 ha         1 AKA       0.139000
    101 HO6          4.3860    -1.8210    -1.6430 ho         1 AKA       0.518000
    102 H15         10.2760    -0.7020     1.7840 ha         1 AKA       0.142000
    103 H2          11.0930    -3.0360     1.6800 ha         1 AKA       0.124000
    104 H9           9.7660    -4.7760     0.5540 ha         1 AKA       0.137000
    105 HO4          6.6850    -4.0680    -0.9600 ho         1 AKA       0.517000
@<TRIPOS>BOND
     1     1     2 2   
     2     2     3 1   
     3     2     5 1   
     4     3     4 1   
     5     3    55 1   
     6     3    56 1   
     7     4     8 1   
     8     4    57 1   
     9     4    58 1   
    10     5     6 1   
    11     5     7 1   
    12     5    59 1   
    13     6    60 1   
    14     6    61 1   
    15     6    62 1   
    16     7     8 1   
    17     8     9 1   
    18     8    63 1   
    19     9    10 1   
    20    10    11 1   
    21    10    14 1   
    22    10    64 1   
    23    11    12 1   
    24    11    13 1   
    25    11    65 1   
    26    12    66 1   
    27    12    67 1   
    28    12    68 1   
    29    13    17 1   
    30    14    15 1   
    31    14    16 1   
    32    14    69 1   
    33    15    70 1   
    34    16    17 1   
    35    16    71 1   
    36    16    72 1   
    37    17    18 1   
    38    17    73 1   
    39    18    19 1   
    40    19    20 1   
    41    19    23 1   
    42    19    74 1   
    43    20    21 1   
    44    20    22 1   
    45    20    75 1   
    46    21    76 1   
    47    21    77 1   
    48    21    78 1   
    49    22    28 1   
    50    23    24 1   
    51    23    27 1   
    52    23    79 1   
    53    24    25 1   
    54    24    26 1   
    55    25    80 1   
    56    25    81 1   
    57    25    82 1   
    58    26    83 1   
    59    26    84 1   
    60    26    85 1   
    61    27    28 1   
    62    27    86 1   
    63    27    87 1   
    64    28    29 1   
    65    28    88 1   
    66    29    30 1   
    67    30    31 1   
    68    30    36 1   
    69    30    89 1   
    70    31    32 1   
    71    31    90 1   
    72    31    91 1   
    73    32    33 1   
    74    32    34 1   
    75    32    38 1   
    76    33    92 1   
    77    34    35 1   
    78    34    93 1   
    79    34    94 1   
    80    35    95 1   
    81    35    96 1   
    82    35    97 1   
    83    36    37 ar  
    84    36    42 ar  
    85    37    38 1   
    86    37    39 ar  
    87    38    98 1   
    88    38    99 1   
    89    39    40 ar  
    90    39   100 1   
    91    40    41 ar  
    92    40    44 1   
    93    41    42 ar  
    94    41    51 1   
    95    42    43 1   
    96    43   101 1   
    97    44    45 2   
    98    44    46 1   
    99    46    47 ar  
   100    46    50 ar  
   101    47    48 ar  
   102    47   102 1   
   103    48    49 ar  
   104    48   103 1   
   105    49    53 ar  
   106    49   104 1   
   107    50    51 1   
   108    50    53 ar  
   109    51    52 2   
   110    53    54 1   
   111    54   105 1   
@<TRIPOS>SUBSTRUCTURE
     1 AKA         1 TEMP              0 ****  ****    0 ROOT
