@<TRIPOS>MOLECULE
AKA
  105   111     1     0     0
SMALL
No Charge or Current Charge


@<TRIPOS>ATOM
      1 O15        -12.8520    -0.5450     0.7440 o          1 AKA      -0.505100
      2 C42        -11.7870    -0.9570     0.2930 c          1 AKA       0.545100
      3 C40        -11.2920    -2.3860     0.5520 c6         1 AKA      -0.186400
      4 C38         -9.8450    -2.3700     1.1340 c6         1 AKA      -0.094400
      5 C39        -10.7380    -0.0650    -0.4360 c6         1 AKA       0.087300
      6 C41        -11.1680     1.4250    -0.5080 c3         1 AKA      -0.078100
      7 O14         -9.4640    -0.1120     0.2540 os         1 AKA      -0.485000
      8 C37         -8.8970    -1.4380     0.3310 c6         1 AKA       0.398300
      9 O13         -7.6360    -1.3430     1.0120 os         1 AKA      -0.438000
     10 C35         -6.5450    -0.7620     0.2500 c6         1 AKA       0.144300
     11 C34         -5.5230    -0.0810     1.2080 c6         1 AKA       0.183300
     12 C36         -6.1410     1.0870     2.0150 c3         1 AKA      -0.083100
     13 O11         -4.4250     0.4730     0.4550 os         1 AKA      -0.490000
     14 C33         -5.7950    -1.8180    -0.6370 c6         1 AKA       0.150300
     15 O12         -6.6410    -2.4050    -1.6400 oh         1 AKA      -0.721000
     16 C32         -4.5640    -1.1760    -1.3170 c6         1 AKA      -0.140400
     17 C31         -3.6590    -0.5130    -0.2590 c6         1 AKA       0.403300
     18 O4          -2.5640     0.1420    -0.9150 os         1 AKA      -0.427000
     19 C4          -1.5120     0.6900    -0.0650 c6         1 AKA       0.154300
     20 C5          -0.6900     1.7340    -0.8760 c6         1 AKA       0.168300
     21 C6          -1.5580     2.8680    -1.4780 c3         1 AKA      -0.083100
     22 O5          -0.0010     1.0940    -1.9770 os         1 AKA      -0.471000
     23 C3          -0.5020    -0.3930     0.4850 c6         1 AKA       0.159500
     24 N3          -1.1110    -1.4160     1.4170 n3         1 AKA      -0.726600
     25 C8          -0.1890    -2.5080     1.8180 c3         1 AKA       0.153100
     26 C7          -1.7340    -0.8050     2.6200 c3         1 AKA       0.153100
     27 C2           0.2440    -1.0140    -0.7360 c6         1 AKA      -0.091400
     28 C1           0.9420     0.0760    -1.5870 c6         1 AKA       0.388300
     29 O7           2.0300     0.6610    -0.8430 os         1 AKA      -0.467000
     30 C26          3.0640     1.3090    -1.6230 c6         1 AKA       0.252600
     31 C25          2.7400     2.7980    -1.9260 c6         1 AKA      -0.090400
     32 C9           3.0580     3.7630    -0.7520 c6         1 AKA       0.192000
     33 O9           2.2580     3.4410     0.3880 oh         1 AKA      -0.639000
     34 C13          2.7030     5.2280    -1.1710 c3         1 AKA      -0.106400
     35 C14          2.9610     6.3370    -0.1210 c3         1 AKA      -0.094100
     36 C20          4.4040     1.1020    -0.8960 ca         1 AKA      -0.118300
     37 C19          5.0780     2.1860    -0.2930 ca         1 AKA       0.011700
     38 C10          4.5600     3.6270    -0.3850 c6         1 AKA      -0.073100
     39 C11          6.2920     1.9610     0.3740 ca         1 AKA      -0.118000
     40 C18          6.8590     0.6720     0.4640 ca         1 AKA      -0.075600
     41 C17          6.1940    -0.4200    -0.1480 ca         1 AKA      -0.273600
     42 C23          4.9710    -0.1900    -0.8280 ca         1 AKA       0.247100
     43 O6           4.3370    -1.2290    -1.4450 oh         1 AKA      -0.538100
     44 C12          8.1680     0.4900     1.2030 c          1 AKA       0.586300
     45 O3           8.7390     1.4420     1.7290 o          1 AKA      -0.506100
     46 C15          8.7510    -0.9040     1.2720 ca         1 AKA      -0.081600
     47 C28          9.9710    -1.1140     1.9560 ca         1 AKA      -0.112000
     48 C27         10.5390    -2.3930     2.0390 ca         1 AKA      -0.048000
     49 C24          9.8920    -3.4800     1.4380 ca         1 AKA      -0.153000
     50 C16          8.0950    -2.0080     0.6630 ca         1 AKA      -0.257600
     51 C22          6.7930    -1.8040    -0.0710 c          1 AKA       0.636300
     52 O8           6.2270    -2.7580    -0.6000 o          1 AKA      -0.632100
     53 C21          8.6830    -3.2930     0.7570 ca         1 AKA       0.222100
     54 O2           8.0920    -4.3790     0.1890 oh         1 AKA      -0.537100
     55 H401       -11.2050    -2.8690    -0.4310 hc         1 AKA       0.069700
     56 H402       -12.0000    -2.9430     1.1790 hc         1 AKA       0.069700
     57 H381        -9.4340    -3.3880     1.1460 hc         1 AKA       0.067700
     58 H382        -9.8740    -2.0340     2.1800 hc         1 AKA       0.067700
     59 H39        -10.6130    -0.4590    -1.4550 h1         1 AKA       0.045700
     60 H411       -11.3030     1.8510     0.4930 hc         1 AKA       0.051700
     61 H412       -10.4130     2.0250    -1.0300 hc         1 AKA       0.051700
     62 H413       -12.1130     1.5370    -1.0520 hc         1 AKA       0.051700
     63 H37         -8.7660    -1.8440    -0.6810 h2         1 AKA       0.038700
     64 H35         -6.9480     0.0230    -0.4070 h1         1 AKA       0.070700
     65 H34         -5.1260    -0.8240     1.9160 h1         1 AKA       0.037700
     66 H361        -6.9500     0.7330     2.6650 hc         1 AKA       0.050033
     67 H362        -5.3890     1.5640     2.6540 hc         1 AKA       0.050033
     68 H363        -6.5570     1.8530     1.3500 hc         1 AKA       0.050033
     69 H33         -5.4300    -2.6090     0.0360 h1         1 AKA       0.039700
     70 H12         -6.1300    -3.1370    -2.0560 ho         1 AKA       0.507000
     71 H321        -4.8820    -0.4240    -2.0520 hc         1 AKA       0.069700
     72 H322        -3.9890    -1.9360    -1.8610 hc         1 AKA       0.069700
     73 H31         -3.2990    -1.2870     0.4300 h2         1 AKA       0.034700
     74 H4          -1.9760     1.2280     0.7730 h1         1 AKA       0.050700
     75 H5           0.0490     2.1980    -0.2090 h1         1 AKA       0.060700
     76 H6'1        -2.1190     3.3890    -0.6940 hc         1 AKA       0.046033
     77 H6'2        -0.9320     3.6100    -1.9870 hc         1 AKA       0.046033
     78 H6'3        -2.2800     2.4810    -2.2070 hc         1 AKA       0.046033
     79 H3           0.2560     0.1570     1.0630 h1         1 AKA       0.053700
     80 H8'1         0.7280    -2.1030     2.2680 h1         1 AKA       0.030367
     81 H8'2        -0.6660    -3.1690     2.5530 h1         1 AKA       0.030367
     82 H8'3         0.0860    -3.1340     0.9600 h1         1 AKA       0.030367
     83 H7'1        -2.5300    -0.1000     2.3540 h1         1 AKA       0.030367
     84 H7'2        -2.1860    -1.5770     3.2560 h1         1 AKA       0.030367
     85 H7'3        -0.9840    -0.2680     3.2160 h1         1 AKA       0.030367
     86 H2'1        -0.4570    -1.5800    -1.3620 hc         1 AKA       0.066200
     87 H2'2         1.0190    -1.7190    -0.4140 hc         1 AKA       0.066200
     88 H1           1.3440    -0.4100    -2.4900 h2         1 AKA       0.069700
     89 H7           3.1360     0.7900    -2.5910 h1         1 AKA       0.053700
     90 H81          1.6980     2.9140    -2.2410 hc         1 AKA       0.062200
     91 H82          3.3380     3.1000    -2.7970 hc         1 AKA       0.062200
     92 HO9          2.5040     4.0780     1.0890 ho         1 AKA       0.438000
     93 H131         1.6430     5.2760    -1.4530 hc         1 AKA       0.051700
     94 H132         3.2600     5.4930    -2.0790 hc         1 AKA       0.051700
     95 H141         2.6580     7.3110    -0.5220 hc         1 AKA       0.035033
     96 H142         2.3870     6.1590     0.7960 hc         1 AKA       0.035033
     97 H143         4.0240     6.3990     0.1380 hc         1 AKA       0.035033
     98 H101         5.1620     4.1510    -1.1410 hc         1 AKA       0.061700
     99 H102         4.7600     4.1450     0.5620 hc         1 AKA       0.061700
    100 H11          6.8040     2.8080     0.8260 ha         1 AKA       0.139000
    101 HO6          4.8960    -2.0300    -1.2630 ho         1 AKA       0.518000
    102 H15         10.4880    -0.2810     2.4290 ha         1 AKA       0.142000
    103 H2          11.4790    -2.5400     2.5680 ha         1 AKA       0.124000
    104 H9          10.3300    -4.4730     1.5010 ha         1 AKA       0.137000
    105 HO4          7.2610    -4.0400    -0.2380 ho         1 AKA       0.517000
@<TRIPOS>BOND
     1     1     2 2   
     2     2     3 1   
     3     2     5 1   
     4     3     4 1   
     5     3    55 1   
     6     3    56 1   
     7     4     8 1   
     8     4    57 1   
     9     4    58 1   
    10     5     6 1   
    11     5     7 1   
    12     5    59 1   
    13     6    60 1   
    14     6    61 1   
    15     6    62 1   
    16     7     8 1   
    17     8     9 1   
    18     8    63 1   
    19     9    10 1   
    20    10    11 1   
    21    10    14 1   
    22    10    64 1   
    23    11    12 1   
    24    11    13 1   
    25    11    65 1   
    26    12    66 1   
    27    12    67 1   
    28    12    68 1   
    29    13    17 1   
    30    14    15 1   
    31    14    16 1   
    32    14    69 1   
    33    15    70 1   
    34    16    17 1   
    35    16    71 1   
    36    16    72 1   
    37    17    18 1   
    38    17    73 1   
    39    18    19 1   
    40    19    20 1   
    41    19    23 1   
    42    19    74 1   
    43    20    21 1   
    44    20    22 1   
    45    20    75 1   
    46    21    76 1   
    47    21    77 1   
    48    21    78 1   
    49    22    28 1   
    50    23    24 1   
    51    23    27 1   
    52    23    79 1   
    53    24    25 1   
    54    24    26 1   
    55    25    80 1   
    56    25    81 1   
    57    25    82 1   
    58    26    83 1   
    59    26    84 1   
    60    26    85 1   
    61    27    28 1   
    62    27    86 1   
    63    27    87 1   
    64    28    29 1   
    65    28    88 1   
    66    29    30 1   
    67    30    31 1   
    68    30    36 1   
    69    30    89 1   
    70    31    32 1   
    71    31    90 1   
    72    31    91 1   
    73    32    33 1   
    74    32    34 1   
    75    32    38 1   
    76    33    92 1   
    77    34    35 1   
    78    34    93 1   
    79    34    94 1   
    80    35    95 1   
    81    35    96 1   
    82    35    97 1   
    83    36    37 ar  
    84    36    42 ar  
    85    37    38 1   
    86    37    39 ar  
    87    38    98 1   
    88    38    99 1   
    89    39    40 ar  
    90    39   100 1   
    91    40    41 ar  
    92    40    44 1   
    93    41    42 ar  
    94    41    51 1   
    95    42    43 1   
    96    43   101 1   
    97    44    45 2   
    98    44    46 1   
    99    46    47 ar  
   100    46    50 ar  
   101    47    48 ar  
   102    47   102 1   
   103    48    49 ar  
   104    48   103 1   
   105    49    53 ar  
   106    49   104 1   
   107    50    51 1   
   108    50    53 ar  
   109    51    52 2   
   110    53    54 1   
   111    54   105 1   
@<TRIPOS>SUBSTRUCTURE
     1 AKA         1 TEMP              0 ****  ****    0 ROOT
