@<TRIPOS>MOLECULE
AKB
   14    13     1     0     0
SMALL
abcg2


@<TRIPOS>ATOM
      1 C1           0.2200    -0.1150    -1.1260 c          1 AKB       0.735000
      2 O1          -0.5660    -0.9440    -1.6110 o          1 AKB      -0.712000
      3 O2           1.3910     0.1200    -1.4680 o          1 AKB      -0.712000
      4 C2          -0.3320     0.7040     0.0950 c3         1 AKB      -0.093500
      5 C3           0.1200    -0.0370     1.3420 c          1 AKB       0.561100
      6 C4           1.5440     0.1780     1.7710 c3         1 AKB      -0.199100
      7 O3          -0.6400    -0.7500     1.9630 o          1 AKB      -0.591100
      8 N4          -1.7600     0.8800    -0.0190 n8         1 AKB      -0.981200
      9 H21          0.1690     1.6790     0.0900 h1         1 AKB       0.060700
     10 H41          1.8860    -0.6110     2.4390 hc         1 AKB       0.051033
     11 H42          2.2080     0.2570     0.9120 hc         1 AKB       0.051033
     12 H43          1.6030     1.1290     2.3060 hc         1 AKB       0.051033
     13 HN41        -2.1720    -0.0060    -0.2820 hn         1 AKB       0.389500
     14 HN42        -2.1600     1.1310     0.8760 hn         1 AKB       0.389500
@<TRIPOS>BOND
     1     1     2 1   
     2     1     3 1   
     3     1     4 1   
     4     4     5 1   
     5     4     8 1   
     6     4     9 1   
     7     5     6 1   
     8     5     7 2   
     9     6    10 1   
    10     6    11 1   
    11     6    12 1   
    12     8    13 1   
    13     8    14 1   
@<TRIPOS>SUBSTRUCTURE
     1 AKB         1 TEMP              0 ****  ****    0 ROOT
