@<TRIPOS>MOLECULE
AKB
   14    13     1     0     0
SMALL
No Charge or Current Charge


@<TRIPOS>ATOM
      1 C1           0.3440     0.0010    -1.1260 c          1 AKB       0.735000
      2 O1          -0.0140    -1.1220    -1.4540 o          1 AKB      -0.712000
      3 O2           1.1880     0.6440    -1.7350 o          1 AKB      -0.712000
      4 C2          -0.3620     0.6790     0.0870 c3         1 AKB      -0.093500
      5 C3           0.0930    -0.1180     1.3410 c          1 AKB       0.561100
      6 C4           1.5490     0.0580     1.7820 c3         1 AKB      -0.199100
      7 O3          -0.6800    -0.8260     1.9820 o          1 AKB      -0.591100
      8 N4          -1.8770     0.9220    -0.0400 n8         1 AKB      -0.981200
      9 H21          0.1020     1.6700     0.1900 h1         1 AKB       0.060700
     10 H41          1.7740    -0.4640     2.7190 hc         1 AKB       0.051033
     11 H42          2.2120    -0.2730     0.9740 hc         1 AKB       0.051033
     12 H43          1.7790     1.1270     1.8460 hc         1 AKB       0.051033
     13 HN41        -2.3530     0.0120    -0.1190 hn         1 AKB       0.389500
     14 HN42        -2.2440     1.3040     0.8420 hn         1 AKB       0.389500
@<TRIPOS>BOND
     1     1     2 1   
     2     1     3 1   
     3     1     4 1   
     4     4     5 1   
     5     4     8 1   
     6     4     9 1   
     7     5     6 1   
     8     5     7 2   
     9     6    10 1   
    10     6    11 1   
    11     6    12 1   
    12     8    13 1   
    13     8    14 1   
@<TRIPOS>SUBSTRUCTURE
     1 AKB         1 TEMP              0 ****  ****    0 ROOT
