@<TRIPOS>MOLECULE
AKC
   85    90     1     0     0
SMALL
No Charge or Current Charge


@<TRIPOS>ATOM
      1 O01         12.9420    22.7750     4.3620 os         1 AKC      -0.459100
      2 C02         13.8360    23.0120     5.3590 c          1 AKC       0.636100
      3 O03         14.4420    24.0560     5.5420 o          1 AKC      -0.551000
      4 NP4         14.0580    21.8450     6.0250 ns         1 AKC      -0.493900
      5 C05         15.1050    21.6330     7.0320 c3         1 AKC       0.132700
      6 C06         16.1730    20.6090     6.5330 c3         1 AKC       0.159300
      7 O07         15.5740    19.3360     6.2750 oh         1 AKC      -0.681000
      8 C08         16.8910    21.0640     5.2320 c3         1 AKC      -0.100400
      9 C09         18.0020    20.1120     4.6900 c5         1 AKC       0.099200
     10 C10         18.6900    20.7780     3.4600 c3         1 AKC      -0.029100
     11 C11         19.8440    19.9800     2.8510 ca         1 AKC      -0.099300
     12 C12         19.6100    19.0730     1.7980 ca         1 AKC      -0.104000
     13 C13         20.6740    18.3410     1.2420 ca         1 AKC      -0.102000
     14 C14         21.9800    18.5170     1.7290 ca         1 AKC      -0.091000
     15 C15         22.2220    19.4270     2.7720 ca         1 AKC      -0.102000
     16 C16         21.1580    20.1570     3.3290 ca         1 AKC      -0.104000
     17 C17         19.0600    19.8140     5.8020 c          1 AKC       0.585300
     18 O18         19.7460    20.5730     6.4800 o          1 AKC      -0.543100
     19 C19         20.0140    17.6920     6.8120 c5         1 AKC       0.067800
     20 C20         21.3040    17.2810     5.9700 c5         1 AKC       0.160300
     21 C22         21.8540    15.9530     6.6140 c5         1 AKC       0.118000
     22 C23         20.6210    15.4190     7.3030 ca         1 AKC      -0.136300
     23 C24         20.4430    14.1220     7.8130 ca         1 AKC      -0.081000
     24 C25         19.2140    13.7880     8.4140 ca         1 AKC      -0.112000
     25 C26         18.1840    14.7480     8.5010 ca         1 AKC      -0.098000
     26 C27         18.3800    16.0440     7.9870 ca         1 AKC      -0.093000
     27 C28         19.6100    16.3580     7.3850 ca         1 AKC      -0.072300
     28 N29         17.3870    18.7900     4.2920 nu         1 AKC      -0.812200
     29 C30         18.1070    17.8210     5.0060 c2         1 AKC       0.118000
     30 C35         19.0080    18.3420     5.8490 ce         1 AKC      -0.330400
     31 C36         14.4870    21.2520     8.4000 c3         1 AKC      -0.038100
     32 C37         13.5220    22.3100     8.9260 ca         1 AKC      -0.082300
     33 C38         14.0190    23.5020     9.4910 ca         1 AKC      -0.099500
     34 C39         13.1330    24.4830     9.9690 ca         1 AKC      -0.108500
     35 C40         11.7460    24.2810     9.8830 ca         1 AKC      -0.109000
     36 C41         11.2440    23.0950     9.3200 ca         1 AKC      -0.108500
     37 C42         12.1300    22.1130     8.8430 ca         1 AKC      -0.099500
     38 C44         12.6770    23.8410     3.4280 c3         1 AKC       0.145600
     39 C45         11.8140    23.2840     2.2660 c3         1 AKC       0.155600
     40 O46         12.5020    22.2330     1.5340 os         1 AKC      -0.459000
     41 C47         13.6950    22.6010     0.8080 c3         1 AKC       0.154600
     42 C48         14.9280    22.0750     1.5720 c3         1 AKC      -0.115100
     43 O49         20.9460    16.8860     4.6210 os         1 AKC      -0.419100
     44 N50         22.2120    15.2380     5.4040 ns         1 AKC      -0.515900
     45 C51         21.6190    15.7520     4.2910 c          1 AKC       0.683100
     46 O52         21.6310    15.2290     3.1910 o          1 AKC      -0.538000
     47 HP4         13.5250    21.0460     5.7090 hn         1 AKC       0.336500
     48 H05         15.6320    22.5850     7.1830 h1         1 AKC       0.088700
     49 H06         16.9300    20.5070     7.3220 h1         1 AKC       0.049700
     50 H07         16.1440    18.9530     5.5520 ho         1 AKC       0.458000
     51 H081        16.1430    21.2190     4.4450 hc         1 AKC       0.073700
     52 H082        17.3280    22.0520     5.4250 hc         1 AKC       0.073700
     53 H101        17.9390    20.9750     2.6850 hc         1 AKC       0.063200
     54 H102        19.0640    21.7680     3.7490 hc         1 AKC       0.063200
     55 H12         18.6050    18.9310     1.4100 ha         1 AKC       0.109000
     56 H13         20.4860    17.6380     0.4340 ha         1 AKC       0.114500
     57 H14         22.8020    17.9480     1.3000 ha         1 AKC       0.117000
     58 H15         23.2330    19.5650     3.1490 ha         1 AKC       0.114500
     59 H16         21.3590    20.8600     4.1340 ha         1 AKC       0.109000
     60 H19         20.2950    18.3660     7.6300 hc         1 AKC       0.089700
     61 H20         22.0620    18.0740     5.9220 h1         1 AKC       0.089700
     62 H22         22.6890    16.1260     7.3080 h1         1 AKC       0.094700
     63 H24         21.2400    13.3850     7.7420 ha         1 AKC       0.115000
     64 H25         19.0600    12.7880     8.8130 ha         1 AKC       0.117000
     65 H26         17.2360    14.4870     8.9690 ha         1 AKC       0.118000
     66 H27         17.5930    16.7910     8.0570 ha         1 AKC       0.125000
     67 H29         17.2040    18.5860     3.3020 hn         1 AKC       0.499000
     68 H30         17.9170    16.7540     4.8350 h4         1 AKC       0.221000
     69 H361        13.9770    20.2850     8.3100 hc         1 AKC       0.060200
     70 H362        15.2960    21.1000     9.1250 hc         1 AKC       0.060200
     71 H38         15.0920    23.6680     9.5600 ha         1 AKC       0.110000
     72 H39         13.5230    25.4010    10.4040 ha         1 AKC       0.111000
     73 H40         11.0600    25.0410    10.2520 ha         1 AKC       0.110000
     74 H41         10.1700    22.9370     9.2520 ha         1 AKC       0.111000
     75 H42         11.7320    21.2000     8.4050 ha         1 AKC       0.110000
     76 H441        12.1290    24.6530     3.9230 h1         1 AKC       0.056200
     77 H442        13.6050    24.2660     3.0270 h1         1 AKC       0.056200
     78 H451        10.8760    22.8960     2.6850 h1         1 AKC       0.056200
     79 H452        11.5500    24.1090     1.5920 h1         1 AKC       0.056200
     80 H471        13.6800    22.1360    -0.1860 h1         1 AKC       0.039200
     81 H472        13.7700    23.6880     0.6670 h1         1 AKC       0.039200
     82 H481        15.8350    22.2380     0.9780 hc         1 AKC       0.040367
     83 H482        15.0610    22.5860     2.5300 hc         1 AKC       0.040367
     84 H483        14.8360    20.9990     1.7610 hc         1 AKC       0.040367
     85 H50         22.6930    14.3510     5.3420 hn         1 AKC       0.338500
@<TRIPOS>BOND
     1     1     2 1   
     2     1    38 1   
     3     2     3 2   
     4     2     4 1   
     5     4     5 1   
     6     4    47 1   
     7     5     6 1   
     8     5    31 1   
     9     5    48 1   
    10     6     7 1   
    11     6     8 1   
    12     6    49 1   
    13     7    50 1   
    14     8     9 1   
    15     8    51 1   
    16     8    52 1   
    17     9    10 1   
    18     9    17 1   
    19     9    28 1   
    20    10    11 1   
    21    10    53 1   
    22    10    54 1   
    23    11    12 ar  
    24    11    16 ar  
    25    12    13 ar  
    26    12    55 1   
    27    13    14 ar  
    28    13    56 1   
    29    14    15 ar  
    30    14    57 1   
    31    15    16 ar  
    32    15    58 1   
    33    16    59 1   
    34    17    18 2   
    35    17    30 1   
    36    19    20 1   
    37    19    27 1   
    38    19    30 1   
    39    19    60 1   
    40    20    21 1   
    41    20    43 1   
    42    20    61 1   
    43    21    22 1   
    44    21    44 1   
    45    21    62 1   
    46    22    23 ar  
    47    22    27 ar  
    48    23    24 ar  
    49    23    63 1   
    50    24    25 ar  
    51    24    64 1   
    52    25    26 ar  
    53    25    65 1   
    54    26    27 ar  
    55    26    66 1   
    56    28    29 1   
    57    28    67 1   
    58    29    30 2   
    59    29    68 1   
    60    31    32 1   
    61    31    69 1   
    62    31    70 1   
    63    32    33 ar  
    64    32    37 ar  
    65    33    34 ar  
    66    33    71 1   
    67    34    35 ar  
    68    34    72 1   
    69    35    36 ar  
    70    35    73 1   
    71    36    37 ar  
    72    36    74 1   
    73    37    75 1   
    74    38    39 1   
    75    38    76 1   
    76    38    77 1   
    77    39    40 1   
    78    39    78 1   
    79    39    79 1   
    80    40    41 1   
    81    41    42 1   
    82    41    80 1   
    83    41    81 1   
    84    42    82 1   
    85    42    83 1   
    86    42    84 1   
    87    43    45 1   
    88    44    45 1   
    89    44    85 1   
    90    45    46 2   
@<TRIPOS>SUBSTRUCTURE
     1 AKC         1 TEMP              0 ****  ****    0 ROOT
