@<TRIPOS>MOLECULE
AKC
   85    90     1     0     0
SMALL
abcg2


@<TRIPOS>ATOM
      1 O01         12.8570    22.8940     4.4340 os         1 AKC      -0.459100
      2 C02         13.8590    22.8860     5.3430 c          1 AKC       0.636100
      3 O03         14.5240    23.8710     5.6280 o          1 AKC      -0.551000
      4 NP4         14.0070    21.6560     5.8660 ns         1 AKC      -0.493900
      5 C05         15.0280    21.3090     6.8370 c3         1 AKC       0.132700
      6 C06         15.9840    20.2630     6.2550 c3         1 AKC       0.159300
      7 O07         15.2120    19.0900     5.9730 oh         1 AKC      -0.681000
      8 C08         16.6960    20.7960     5.0140 c3         1 AKC      -0.100400
      9 C09         17.8600    19.9440     4.4980 c5         1 AKC       0.099200
     10 C10         18.4470    20.5980     3.2230 c3         1 AKC      -0.029100
     11 C11         19.6210    19.8730     2.6210 ca         1 AKC      -0.099300
     12 C12         19.4320    18.8630     1.6760 ca         1 AKC      -0.104000
     13 C13         20.5150    18.1740     1.1400 ca         1 AKC      -0.102000
     14 C14         21.8090    18.4930     1.5370 ca         1 AKC      -0.091000
     15 C15         22.0120    19.5040     2.4720 ca         1 AKC      -0.102000
     16 C16         20.9260    20.1860     3.0080 ca         1 AKC      -0.104000
     17 C17         18.9550    19.7800     5.5730 c          1 AKC       0.585300
     18 O18         19.4910    20.7270     6.1460 o          1 AKC      -0.543100
     19 C19         20.1720    17.7820     6.6880 c5         1 AKC       0.067800
     20 C20         21.4860    17.2780     6.0510 c5         1 AKC       0.160300
     21 C22         21.9620    16.0730     6.8980 c5         1 AKC       0.118000
     22 C23         20.7200    15.6490     7.6500 ca         1 AKC      -0.136300
     23 C24         20.5180    14.4950     8.3940 ca         1 AKC      -0.081000
     24 C25         19.2720    14.2850     8.9810 ca         1 AKC      -0.112000
     25 C26         18.2500    15.2210     8.8190 ca         1 AKC      -0.098000
     26 C27         18.4590    16.3790     8.0740 ca         1 AKC      -0.093000
     27 C28         19.7030    16.5880     7.4940 ca         1 AKC      -0.072300
     28 N29         17.4760    18.5460     4.2470 nu         1 AKC      -0.812200
     29 C30         18.3270    17.7180     4.9010 c2         1 AKC       0.118000
     30 C35         19.1820    18.3720     5.7430 ce         1 AKC      -0.330400
     31 C36         14.3980    20.8500     8.1630 c3         1 AKC      -0.038100
     32 C37         13.5530    21.9310     8.7810 ca         1 AKC      -0.082300
     33 C38         14.1440    22.9570     9.5220 ca         1 AKC      -0.099500
     34 C39         13.3790    23.9950    10.0410 ca         1 AKC      -0.108500
     35 C40         12.0030    24.0240     9.8240 ca         1 AKC      -0.109000
     36 C41         11.4030    23.0060     9.0910 ca         1 AKC      -0.108500
     37 C42         12.1740    21.9690     8.5740 ca         1 AKC      -0.099500
     38 C44         12.6760    24.1000     3.6720 c3         1 AKC       0.145600
     39 C45         11.9160    23.7470     2.4110 c3         1 AKC       0.155600
     40 O46         12.5670    22.8010     1.5790 os         1 AKC      -0.459000
     41 C47         13.7860    23.2400     0.9660 c3         1 AKC       0.154600
     42 C48         15.0050    22.5860     1.5950 c3         1 AKC      -0.115100
     43 O49         21.2560    16.6990     4.7430 os         1 AKC      -0.419100
     44 N50         22.3890    15.1550     5.8540 ns         1 AKC      -0.515900
     45 C51         21.8300    15.4700     4.6600 c          1 AKC       0.683100
     46 O52         21.8180    14.8220     3.6330 o          1 AKC      -0.538000
     47 HP4         13.4170    20.9190     5.5130 hn         1 AKC       0.336500
     48 H05         15.6040    22.2150     7.0210 h1         1 AKC       0.088700
     49 H06         16.7230    20.0340     7.0320 h1         1 AKC       0.049700
     50 H07         15.7470    18.5270     5.3940 ho         1 AKC       0.458000
     51 H081        15.9700    20.9280     4.2100 hc         1 AKC       0.073700
     52 H082        17.1070    21.7800     5.2480 hc         1 AKC       0.073700
     53 H101        17.6360    20.6740     2.4940 hc         1 AKC       0.063200
     54 H102        18.7370    21.6120     3.5010 hc         1 AKC       0.063200
     55 H12         18.4270    18.6190     1.3510 ha         1 AKC       0.109000
     56 H13         20.3480    17.3930     0.4100 ha         1 AKC       0.114500
     57 H14         22.6540    17.9580     1.1210 ha         1 AKC       0.117000
     58 H15         23.0160    19.7620     2.7840 ha         1 AKC       0.114500
     59 H16         21.0890    20.9700     3.7370 ha         1 AKC       0.109000
     60 H19         20.4590    18.5790     7.3820 hc         1 AKC       0.089700
     61 H20         22.2280    18.0650     5.9340 h1         1 AKC       0.089700
     62 H22         22.7910    16.3220     7.5610 h1         1 AKC       0.094700
     63 H24         21.3090    13.7640     8.5080 ha         1 AKC       0.115000
     64 H25         19.0940    13.3890     9.5610 ha         1 AKC       0.117000
     65 H26         17.2840    15.0430     9.2760 ha         1 AKC       0.118000
     66 H27         17.6610    17.0990     7.9420 ha         1 AKC       0.125000
     67 H29         17.0630    18.2710     3.3680 hn         1 AKC       0.499000
     68 H30         18.2570    16.6520     4.7390 h4         1 AKC       0.221000
     69 H361        13.7960    19.9580     7.9810 hc         1 AKC       0.060200
     70 H362        15.2080    20.5690     8.8390 hc         1 AKC       0.060200
     71 H38         15.2150    22.9410     9.6900 ha         1 AKC       0.110000
     72 H39         13.8540    24.7810    10.6140 ha         1 AKC       0.111000
     73 H40         11.4050    24.8320    10.2270 ha         1 AKC       0.110000
     74 H41         10.3330    23.0190     8.9190 ha         1 AKC       0.111000
     75 H42         11.7020    21.1810     8.0000 ha         1 AKC       0.110000
     76 H441        12.0980    24.8190     4.2580 h1         1 AKC       0.056200
     77 H442        13.6470    24.5390     3.4530 h1         1 AKC       0.056200
     78 H451        10.9550    23.3010     2.6710 h1         1 AKC       0.056200
     79 H452        11.7250    24.6800     1.8650 h1         1 AKC       0.056200
     80 H471        13.7210    22.9650    -0.0900 h1         1 AKC       0.039200
     81 H472        13.8580    24.3310     1.0180 h1         1 AKC       0.039200
     82 H481        15.9050    22.8720     1.0450 hc         1 AKC       0.040367
     83 H482        15.1340    22.8830     2.6360 hc         1 AKC       0.040367
     84 H483        14.9160    21.4980     1.5580 hc         1 AKC       0.040367
     85 H50         22.6550    14.2010     6.0450 hn         1 AKC       0.338500
@<TRIPOS>BOND
     1     1     2 1   
     2     1    38 1   
     3     2     3 2   
     4     2     4 1   
     5     4     5 1   
     6     4    47 1   
     7     5     6 1   
     8     5    31 1   
     9     5    48 1   
    10     6     7 1   
    11     6     8 1   
    12     6    49 1   
    13     7    50 1   
    14     8     9 1   
    15     8    51 1   
    16     8    52 1   
    17     9    10 1   
    18     9    17 1   
    19     9    28 1   
    20    10    11 1   
    21    10    53 1   
    22    10    54 1   
    23    11    12 ar  
    24    11    16 ar  
    25    12    13 ar  
    26    12    55 1   
    27    13    14 ar  
    28    13    56 1   
    29    14    15 ar  
    30    14    57 1   
    31    15    16 ar  
    32    15    58 1   
    33    16    59 1   
    34    17    18 2   
    35    17    30 1   
    36    19    20 1   
    37    19    27 1   
    38    19    30 1   
    39    19    60 1   
    40    20    21 1   
    41    20    43 1   
    42    20    61 1   
    43    21    22 1   
    44    21    44 1   
    45    21    62 1   
    46    22    23 ar  
    47    22    27 ar  
    48    23    24 ar  
    49    23    63 1   
    50    24    25 ar  
    51    24    64 1   
    52    25    26 ar  
    53    25    65 1   
    54    26    27 ar  
    55    26    66 1   
    56    28    29 1   
    57    28    67 1   
    58    29    30 2   
    59    29    68 1   
    60    31    32 1   
    61    31    69 1   
    62    31    70 1   
    63    32    33 ar  
    64    32    37 ar  
    65    33    34 ar  
    66    33    71 1   
    67    34    35 ar  
    68    34    72 1   
    69    35    36 ar  
    70    35    73 1   
    71    36    37 ar  
    72    36    74 1   
    73    37    75 1   
    74    38    39 1   
    75    38    76 1   
    76    38    77 1   
    77    39    40 1   
    78    39    78 1   
    79    39    79 1   
    80    40    41 1   
    81    41    42 1   
    82    41    80 1   
    83    41    81 1   
    84    42    82 1   
    85    42    83 1   
    86    42    84 1   
    87    43    45 1   
    88    44    45 1   
    89    44    85 1   
    90    45    46 2   
@<TRIPOS>SUBSTRUCTURE
     1 AKC         1 TEMP              0 ****  ****    0 ROOT
