@<TRIPOS>MOLECULE
AKD
   31    32     1     0     0
SMALL
abcg2


@<TRIPOS>ATOM
      1 OAA          1.0640     3.5980    -0.2030 o          1 AKD      -0.721000
      2 OAB         -1.0940     3.0940    -0.1010 o          1 AKD      -0.721000
      3 CAD          1.3140    -1.3560     0.2230 ca         1 AKD      -0.052000
      4 CAE         -0.0290    -1.0420     0.2870 ca         1 AKD      -0.251000
      5 CAF          1.8290     0.9730    -0.0270 ca         1 AKD      -0.014000
      6 CAG         -5.2910    -0.6980     0.9620 c6         1 AKD      -0.111400
      7 CAH         -5.5280    -1.2560    -0.4390 c6         1 AKD       0.150800
      8 CAI         -4.1250     0.2860     0.9620 c6         1 AKD      -0.086400
      9 CAJ         -3.2240    -0.9050    -1.0430 c6         1 AKD       0.113800
     10 NAK         -4.3410    -1.8330    -1.0520 n7         1 AKD      -0.851400
     11 CAM          0.1260     2.7900    -0.0990 c          1 AKD       0.723600
     12 CAN          2.2470    -0.3410     0.0690 ca         1 AKD      -0.100900
     13 CAO         -0.4870     0.2900     0.2070 ca         1 AKD       0.382000
     14 CAP          0.4830     1.3180     0.0340 ca         1 AKD      -0.226600
     15 CAQ         -2.8830    -0.3560     0.3520 c6         1 AKD       0.218500
     16 HAD          1.6160    -2.3930     0.2920 ha         1 AKD       0.095000
     17 HAE         -0.7320    -1.8550     0.3990 ha         1 AKD       0.089000
     18 HAF          2.5490     1.7710    -0.1530 ha         1 AKD       0.144000
     19 HAGA        -5.0790    -1.5210     1.6520 hc         1 AKD       0.034200
     20 HAH         -6.3130    -2.0150    -0.4190 h1         1 AKD       0.042700
     21 HAHA        -5.8860    -0.4510    -1.0890 h1         1 AKD       0.042700
     22 HAI         -4.3960     1.1730     0.3770 hc         1 AKD       0.054700
     23 HAIA        -3.9070     0.6310     1.9760 hc         1 AKD       0.054700
     24 HAJ         -2.3500    -1.3950    -1.4790 h1         1 AKD       0.063200
     25 HAJA        -3.4690    -0.0590    -1.6940 h1         1 AKD       0.063200
     26 HNAK        -4.0790    -2.6720    -0.5460 hn         1 AKD       0.395000
     27 HAQ         -2.6010    -1.2000     0.9930 h1         1 AKD       0.036700
     28 BRAC         4.0940    -0.7610    -0.0170 br         1 AKD      -0.175100
     29 NAL         -1.8020     0.5950     0.3200 nu         1 AKD      -0.984200
     30 HAG         -6.1970    -0.2090     1.3270 hc         1 AKD       0.034200
     31 HNAL        -1.9940     1.5810     0.1500 hn         1 AKD       0.556000
@<TRIPOS>BOND
     1     1    11 1   
     2     2    11 1   
     3     3     4 ar  
     4     3    12 ar  
     5     3    16 1   
     6     4    13 ar  
     7     4    17 1   
     8     5    12 ar  
     9     5    14 ar  
    10     5    18 1   
    11     6     7 1   
    12     6     8 1   
    13     6    19 1   
    14     6    30 1   
    15     7    10 1   
    16     7    20 1   
    17     7    21 1   
    18     8    15 1   
    19     8    22 1   
    20     8    23 1   
    21     9    10 1   
    22     9    15 1   
    23     9    24 1   
    24     9    25 1   
    25    10    26 1   
    26    11    14 1   
    27    12    28 1   
    28    13    14 ar  
    29    13    29 1   
    30    15    27 1   
    31    15    29 1   
    32    29    31 1   
@<TRIPOS>SUBSTRUCTURE
     1 AKD         1 TEMP              0 ****  ****    0 ROOT
