@<TRIPOS>MOLECULE
AKD
   31    32     1     0     0
SMALL
No Charge or Current Charge


@<TRIPOS>ATOM
      1 OAA          0.3280     3.2010    -1.2990 o          1 AKD      -0.721000
      2 OAB         -1.1870     2.9840     0.2050 o          1 AKD      -0.721000
      3 CAD          1.4610    -1.3380     0.5070 ca         1 AKD      -0.052000
      4 CAE          0.1360    -1.0490     0.8640 ca         1 AKD      -0.251000
      5 CAF          1.6750     0.8970    -0.4310 ca         1 AKD      -0.014000
      6 CAG         -5.3910    -0.7370     0.7490 c6         1 AKD      -0.111400
      7 CAH         -5.4380    -0.9330    -0.7870 c6         1 AKD       0.150800
      8 CAI         -4.1790     0.1350     1.1680 c6         1 AKD      -0.086400
      9 CAJ         -2.9800    -0.7000    -0.9250 c6         1 AKD       0.113800
     10 NAK         -4.1740    -1.5210    -1.2890 n7         1 AKD      -0.851400
     11 CAM         -0.2210     2.5610    -0.4150 c          1 AKD       0.723600
     12 CAN          2.2280    -0.3620    -0.1420 ca         1 AKD      -0.100900
     13 CAO         -0.4280     0.2060     0.5760 ca         1 AKD       0.382000
     14 CAP          0.3400     1.1990    -0.0740 ca         1 AKD      -0.226600
     15 CAQ         -2.8580    -0.4610     0.6200 c6         1 AKD       0.218500
     16 HAD          1.8900    -2.3110     0.7350 ha         1 AKD       0.095000
     17 HAE         -0.4500    -1.8080     1.3740 ha         1 AKD       0.089000
     18 HAF          2.2930     1.6390    -0.9330 ha         1 AKD       0.144000
     19 HAGA        -5.3350    -1.7150     1.2460 hc         1 AKD       0.034200
     20 HAH         -6.2810    -1.5890    -1.0500 h1         1 AKD       0.042700
     21 HAHA        -5.6100     0.0390    -1.2750 h1         1 AKD       0.042700
     22 HAI         -4.3170     1.1570     0.7870 hc         1 AKD       0.054700
     23 HAIA        -4.1330     0.2090     2.2630 hc         1 AKD       0.054700
     24 HAJ         -2.0690    -1.1980    -1.2890 h1         1 AKD       0.063200
     25 HAJA        -3.0430     0.2740    -1.4340 h1         1 AKD       0.063200
     26 HNAK        -4.0670    -2.4520    -0.8680 hn         1 AKD       0.395000
     27 HAQ         -2.6980    -1.4360     1.1050 h1         1 AKD       0.036700
     28 BrAC         4.0350    -0.7440    -0.6320 br         1 AKD      -0.175100
     29 NAL         -1.7440     0.4470     0.9440 nu         1 AKD      -0.984200
     30 HAG         -6.3240    -0.2670     1.0910 hc         1 AKD       0.034200
     31 HNAL        -1.9430     1.4540     0.8290 hn         1 AKD       0.556000
@<TRIPOS>BOND
     1     1    11 1   
     2     2    11 1   
     3     3     4 ar  
     4     3    12 ar  
     5     3    16 1   
     6     4    13 ar  
     7     4    17 1   
     8     5    12 ar  
     9     5    14 ar  
    10     5    18 1   
    11     6     7 1   
    12     6     8 1   
    13     6    19 1   
    14     6    30 1   
    15     7    10 1   
    16     7    20 1   
    17     7    21 1   
    18     8    15 1   
    19     8    22 1   
    20     8    23 1   
    21     9    10 1   
    22     9    15 1   
    23     9    24 1   
    24     9    25 1   
    25    10    26 1   
    26    11    14 1   
    27    12    28 1   
    28    13    14 ar  
    29    13    29 1   
    30    15    27 1   
    31    15    29 1   
    32    29    31 1   
@<TRIPOS>SUBSTRUCTURE
     1 AKD         1 TEMP              0 ****  ****    0 ROOT
