@<TRIPOS>MOLECULE
AKE
   58    60     1     0     0
SMALL
abcg2


@<TRIPOS>ATOM
      1 O01         -2.6790     2.2330    -0.0670 o          1 AKE      -0.588600
      2 C02         -1.4480     2.1780     0.0060 c          1 AKE       0.607300
      3 C03         -0.6900     3.4450     0.0650 ca         1 AKE      -0.122600
      4 C04         -1.3800     4.6570     0.0420 ca         1 AKE      -0.071000
      5 C05         -0.6890     5.8540     0.0910 ca         1 AKE      -0.103500
      6 C06          0.7020     5.8530     0.1650 ca         1 AKE      -0.103500
      7 C07          1.3920     4.6550     0.1900 ca         1 AKE      -0.071000
      8 C08          0.7020     3.4440     0.1410 ca         1 AKE      -0.122600
      9 C09          1.4580     2.1750     0.1730 c          1 AKE       0.607300
     10 O10          2.6890     2.2270     0.2470 o          1 AKE      -0.588600
     11 C11          0.7230     0.9240     0.1210 ca         1 AKE      -0.212100
     12 C12          1.4350    -0.2950     0.1500 ca         1 AKE       0.362500
     13 N13          2.7760    -0.3730     0.2380 nu         1 AKE      -0.816200
     14 C14          3.5380    -1.5960     0.1640 c3         1 AKE       0.230800
     15 C15          5.0200    -1.2810     0.3010 c3         1 AKE       0.143300
     16 N16          5.8010    -2.4880     0.1430 n7         1 AKE      -0.863900
     17 C17          7.2150    -2.2750     0.3840 c3         1 AKE       0.161800
     18 C18          8.0130    -3.5430     0.1860 c3         1 AKE       0.158600
     19 O19          7.9420    -3.9220    -1.1730 oh         1 AKE      -0.670000
     20 C20          0.6800    -1.5010     0.0890 ca         1 AKE      -0.127500
     21 C21         -0.6730    -1.4990     0.0090 ca         1 AKE      -0.127500
     22 C22         -1.4270    -0.2920    -0.0270 ca         1 AKE       0.362500
     23 N23         -2.7670    -0.3660    -0.1200 nu         1 AKE      -0.816200
     24 C24         -3.5330    -1.5890    -0.0870 c3         1 AKE       0.230800
     25 C25         -5.0110    -1.2660    -0.2410 c3         1 AKE       0.143300
     26 N26         -5.7980    -2.4730    -0.1160 n7         1 AKE      -0.863900
     27 C27         -7.2070    -2.2530    -0.3800 c3         1 AKE       0.161800
     28 C28         -8.0130    -3.5200    -0.2100 c3         1 AKE       0.158600
     29 O29         -7.9660    -3.9150     1.1460 oh         1 AKE      -0.670000
     30 C30         -0.7140     0.9260     0.0320 ca         1 AKE      -0.212100
     31 H1          -2.4590     4.6610    -0.0150 ha         1 AKE       0.136000
     32 H2          -1.2300     6.7900     0.0710 ha         1 AKE       0.117000
     33 H3           1.2440     6.7880     0.2040 ha         1 AKE       0.117000
     34 H4           2.4720     4.6560     0.2460 ha         1 AKE       0.136000
     35 H5           3.2640     0.5120     0.2420 hn         1 AKE       0.371000
     36 H6           3.2510    -2.2900     0.9590 h1         1 AKE       0.044200
     37 H7           3.3590    -2.1090    -0.7890 h1         1 AKE       0.044200
     38 H8           5.2950    -0.4910    -0.4150 h1         1 AKE       0.039950
     39 H9           5.2070    -0.8750     1.3000 h1         1 AKE       0.039950
     40 H10          5.6780    -2.8360    -0.8000 hn         1 AKE       0.423000
     41 H12          7.6410    -1.4740    -0.2420 h1         1 AKE       0.038200
     42 H13          7.3480    -1.9560     1.4210 h1         1 AKE       0.038200
     43 H14          9.0480    -3.3560     0.4980 h1         1 AKE       0.027700
     44 H15          7.6120    -4.3260     0.8420 h1         1 AKE       0.027700
     45 H16          8.3840    -4.7700    -1.2740 ho         1 AKE       0.445500
     46 H17          1.1910    -2.4530     0.1100 ha         1 AKE       0.119000
     47 H18         -1.1850    -2.4510    -0.0330 ha         1 AKE       0.119000
     48 H19         -3.2540     0.5200    -0.1040 hn         1 AKE       0.371000
     49 H20         -3.2340    -2.2640    -0.8930 h1         1 AKE       0.044200
     50 H21         -3.3710    -2.1240     0.8570 h1         1 AKE       0.044200
     51 H22         -5.2950    -0.4890     0.4860 h1         1 AKE       0.039950
     52 H23         -5.1820    -0.8410    -1.2340 h1         1 AKE       0.039950
     53 H24         -5.6940    -2.8360     0.8240 hn         1 AKE       0.423000
     54 H26         -7.6410    -1.4570     0.2470 h1         1 AKE       0.038200
     55 H27         -7.3210    -1.9220    -1.4160 h1         1 AKE       0.038200
     56 H28         -9.0420    -3.3260    -0.5370 h1         1 AKE       0.027700
     57 H29         -7.6040    -4.2960    -0.8680 h1         1 AKE       0.027700
     58 H30         -8.4160    -4.7600     1.2300 ho         1 AKE       0.445500
@<TRIPOS>BOND
     1     1     2 2   
     2     2     3 1   
     3     2    30 1   
     4     3     4 ar  
     5     3     8 ar  
     6     4     5 ar  
     7     4    31 1   
     8     5     6 ar  
     9     5    32 1   
    10     6     7 ar  
    11     6    33 1   
    12     7     8 ar  
    13     7    34 1   
    14     8     9 1   
    15     9    10 2   
    16     9    11 1   
    17    11    12 ar  
    18    11    30 ar  
    19    12    13 1   
    20    12    20 ar  
    21    13    14 1   
    22    13    35 1   
    23    14    15 1   
    24    14    36 1   
    25    14    37 1   
    26    15    16 1   
    27    15    38 1   
    28    15    39 1   
    29    16    17 1   
    30    16    40 1   
    31    17    18 1   
    32    17    41 1   
    33    17    42 1   
    34    18    19 1   
    35    18    43 1   
    36    18    44 1   
    37    19    45 1   
    38    20    21 ar  
    39    20    46 1   
    40    21    22 ar  
    41    21    47 1   
    42    22    23 1   
    43    22    30 ar  
    44    23    24 1   
    45    23    48 1   
    46    24    25 1   
    47    24    49 1   
    48    24    50 1   
    49    25    26 1   
    50    25    51 1   
    51    25    52 1   
    52    26    27 1   
    53    26    53 1   
    54    27    28 1   
    55    27    54 1   
    56    27    55 1   
    57    28    29 1   
    58    28    56 1   
    59    28    57 1   
    60    29    58 1   
@<TRIPOS>SUBSTRUCTURE
     1 AKE         1 TEMP              0 ****  ****    0 ROOT
