@<TRIPOS>MOLECULE
AKE
   58    60     1     0     0
SMALL
No Charge or Current Charge


@<TRIPOS>ATOM
      1 O01         -2.5800     2.0710    -0.9430 o          1 AKE      -0.588600
      2 C02         -1.4420     2.0100    -0.4850 c          1 AKE       0.607300
      3 C03         -0.7490     3.2810    -0.0690 ca         1 AKE      -0.122600
      4 C04         -1.4880     4.4840     0.0340 ca         1 AKE      -0.071000
      5 C05         -0.8600     5.6820     0.4070 ca         1 AKE      -0.103500
      6 C06          0.5150     5.6960     0.6760 ca         1 AKE      -0.103500
      7 C07          1.2590     4.5110     0.5710 ca         1 AKE      -0.071000
      8 C08          0.6370     3.2940     0.2020 ca         1 AKE      -0.122600
      9 C09          1.4610     2.0380     0.0820 c          1 AKE       0.607300
     10 O10          2.6860     2.1240     0.0940 o          1 AKE      -0.588600
     11 C11          0.7300     0.7110    -0.0740 ca         1 AKE      -0.212100
     12 C12          1.4290    -0.5230     0.0560 ca         1 AKE       0.362500
     13 N13          2.7970    -0.5670     0.3370 nu         1 AKE      -0.816200
     14 C14          3.7200    -1.7040     0.1540 c3         1 AKE       0.230800
     15 C15          5.1890    -1.3020     0.4670 c3         1 AKE       0.143300
     16 N16          6.1330    -2.4300     0.2720 n7         1 AKE      -0.863900
     17 C17          7.5510    -2.1280     0.5770 c3         1 AKE       0.161800
     18 C18          8.4830    -3.2980     0.1550 c3         1 AKE       0.158600
     19 O19          8.3430    -3.5860    -1.2510 oh         1 AKE      -0.670000
     20 C20          0.7320    -1.7340    -0.0810 ca         1 AKE      -0.127500
     21 C21         -0.6400    -1.7460    -0.3420 ca         1 AKE      -0.127500
     22 C22         -1.3580    -0.5480    -0.4720 ca         1 AKE       0.362500
     23 N23         -2.7310    -0.6220    -0.7170 nu         1 AKE      -0.816200
     24 C24         -3.6580    -1.6760    -0.2600 c3         1 AKE       0.230800
     25 C25         -5.1340    -1.3170    -0.5880 c3         1 AKE       0.143300
     26 N26         -6.0820    -2.3570    -0.1170 n7         1 AKE      -0.863900
     27 C27         -7.5090    -2.0960    -0.4190 c3         1 AKE       0.161800
     28 C28         -8.4350    -3.1290     0.2820 c3         1 AKE       0.158600
     29 O29         -8.2330    -3.1160     1.7090 oh         1 AKE      -0.670000
     30 C30         -0.6820     0.6980    -0.3460 ca         1 AKE      -0.212100
     31 H1          -2.5560     4.4940    -0.1730 ha         1 AKE       0.136000
     32 H2          -1.4400     6.5990     0.4850 ha         1 AKE       0.117000
     33 H3           1.0050     6.6240     0.9630 ha         1 AKE       0.117000
     34 H4           2.3270     4.5420     0.7820 ha         1 AKE       0.136000
     35 H5           3.2280     0.3570     0.3930 hn         1 AKE       0.371000
     36 H6           3.4310    -2.5320     0.8160 h1         1 AKE       0.044200
     37 H7           3.6630    -2.0620    -0.8830 h1         1 AKE       0.044200
     38 H8           5.4670    -0.4600    -0.1820 h1         1 AKE       0.039950
     39 H9           5.2360    -0.9470     1.5060 h1         1 AKE       0.039950
     40 H10          6.1070    -2.7160    -0.7170 hn         1 AKE       0.423000
     41 H12          7.8730    -1.2230     0.0440 h1         1 AKE       0.038200
     42 H13          7.6810    -1.9390     1.6520 h1         1 AKE       0.038200
     43 H14          9.5210    -3.0250     0.3860 h1         1 AKE       0.027700
     44 H15          8.2330    -4.1860     0.7510 h1         1 AKE       0.027700
     45 H16          8.9350    -4.3470    -1.4460 ho         1 AKE       0.445500
     46 H17          1.2480    -2.6830     0.0220 ha         1 AKE       0.119000
     47 H18         -1.1440    -2.7020    -0.4450 ha         1 AKE       0.119000
     48 H19         -3.1520     0.2900    -0.9050 hn         1 AKE       0.371000
     49 H20         -3.4100    -2.6310    -0.7430 h1         1 AKE       0.044200
     50 H21         -3.5570    -1.8080     0.8250 h1         1 AKE       0.044200
     51 H22         -5.3710    -0.3510    -0.1220 h1         1 AKE       0.039950
     52 H23         -5.2260    -1.1890    -1.6760 h1         1 AKE       0.039950
     53 H24         -6.0140    -2.4280     0.9080 hn         1 AKE       0.423000
     54 H26         -7.7950    -1.0920    -0.0760 h1         1 AKE       0.038200
     55 H27         -7.6860    -2.1350    -1.5030 h1         1 AKE       0.038200
     56 H28         -9.4790    -2.8880     0.0430 h1         1 AKE       0.027700
     57 H29         -8.2240    -4.1290    -0.1230 h1         1 AKE       0.027700
     58 H30         -8.8240    -3.8050     2.0860 ho         1 AKE       0.445500
@<TRIPOS>BOND
     1     1     2 2   
     2     2     3 1   
     3     2    30 1   
     4     3     4 ar  
     5     3     8 ar  
     6     4     5 ar  
     7     4    31 1   
     8     5     6 ar  
     9     5    32 1   
    10     6     7 ar  
    11     6    33 1   
    12     7     8 ar  
    13     7    34 1   
    14     8     9 1   
    15     9    10 2   
    16     9    11 1   
    17    11    12 ar  
    18    11    30 ar  
    19    12    13 1   
    20    12    20 ar  
    21    13    14 1   
    22    13    35 1   
    23    14    15 1   
    24    14    36 1   
    25    14    37 1   
    26    15    16 1   
    27    15    38 1   
    28    15    39 1   
    29    16    17 1   
    30    16    40 1   
    31    17    18 1   
    32    17    41 1   
    33    17    42 1   
    34    18    19 1   
    35    18    43 1   
    36    18    44 1   
    37    19    45 1   
    38    20    21 ar  
    39    20    46 1   
    40    21    22 ar  
    41    21    47 1   
    42    22    23 1   
    43    22    30 ar  
    44    23    24 1   
    45    23    48 1   
    46    24    25 1   
    47    24    49 1   
    48    24    50 1   
    49    25    26 1   
    50    25    51 1   
    51    25    52 1   
    52    26    27 1   
    53    26    53 1   
    54    27    28 1   
    55    27    54 1   
    56    27    55 1   
    57    28    29 1   
    58    28    56 1   
    59    28    57 1   
    60    29    58 1   
@<TRIPOS>SUBSTRUCTURE
     1 AKE         1 TEMP              0 ****  ****    0 ROOT
