@<TRIPOS>MOLECULE
AKG
   14    13     1     0     0
SMALL
No Charge or Current Charge


@<TRIPOS>ATOM
      1 C1           2.2850    -0.2130     0.3940 c          1 AKG       0.634000
      2 O1           2.4080    -1.4360     0.3590 o          1 AKG      -0.725000
      3 O2           2.9880     0.5050     1.1020 o          1 AKG      -0.725000
      4 C2           1.1730     0.4850    -0.5590 c          1 AKG       0.426100
      5 O5           1.4120     1.5000    -1.2240 o          1 AKG      -0.593100
      6 C3          -0.2230    -0.1720    -0.6080 c3         1 AKG      -0.162400
      7 C4          -1.2200     0.5180     0.3660 c3         1 AKG      -0.192400
      8 C5          -2.6020    -0.1650     0.3090 c          1 AKG       0.710000
      9 O3          -2.8100    -1.1110     1.0520 o          1 AKG      -0.765500
     10 O4          -3.4100     0.2340    -0.5160 o          1 AKG      -0.765500
     11 H31         -0.6190    -0.1050    -1.6280 hc         1 AKG       0.063200
     12 H32         -0.1410    -1.2210    -0.3020 hc         1 AKG       0.063200
     13 H41         -0.7810     0.4110     1.3660 hc         1 AKG       0.015700
     14 H42         -1.2940     1.5590     0.0290 hc         1 AKG       0.015700
@<TRIPOS>BOND
     1     1     2 1   
     2     1     3 1   
     3     1     4 1   
     4     4     5 2   
     5     4     6 1   
     6     6     7 1   
     7     6    11 1   
     8     6    12 1   
     9     7     8 1   
    10     7    13 1   
    11     7    14 1   
    12     8     9 1   
    13     8    10 1   
@<TRIPOS>SUBSTRUCTURE
     1 AKG         1 TEMP              0 ****  ****    0 ROOT
