@<TRIPOS>MOLECULE
AKG
   14    13     1     0     0
SMALL
bcc


@<TRIPOS>ATOM
      1 C1           2.4860    -0.3360     0.0130 c          1 AKG       0.844600
      2 O1           2.3390    -1.5710     0.0260 o          1 AKG      -0.830300
      3 O2           3.5390     0.3170     0.0070 o          1 AKG      -0.830300
      4 C2           1.1710     0.5020     0.0020 c          1 AKG       0.426100
      5 O5           1.2260     1.7110    -0.0140 o          1 AKG      -0.593100
      6 C3          -0.1310    -0.2480     0.0140 c3         1 AKG      -0.162400
      7 C4          -1.3690     0.6250     0.0030 c3         1 AKG      -0.192400
      8 C5          -2.7070    -0.1380     0.0130 c          1 AKG       0.920600
      9 O3          -2.6730    -1.3830     0.0650 o          1 AKG      -0.870800
     10 O4          -3.7350     0.5700    -0.0290 o          1 AKG      -0.870800
     11 H31         -0.1280    -0.9340    -0.8380 hc         1 AKG       0.063200
     12 H32         -0.1260    -0.9100     0.8850 hc         1 AKG       0.063200
     13 H41         -1.3630     1.3010     0.8640 hc         1 AKG       0.015700
     14 H42         -1.3620     1.2840    -0.8720 hc         1 AKG       0.015700
@<TRIPOS>BOND
     1     1     2 1   
     2     1     3 1   
     3     1     4 1   
     4     4     5 2   
     5     4     6 1   
     6     6     7 1   
     7     6    11 1   
     8     6    12 1   
     9     7     8 1   
    10     7    13 1   
    11     7    14 1   
    12     8     9 1   
    13     8    10 1   
@<TRIPOS>SUBSTRUCTURE
     1 AKG         1 TEMP              0 ****  ****    0 ROOT
