@<TRIPOS>MOLECULE
AKH
   17    18     1     0     0
SMALL
No Charge or Current Charge


@<TRIPOS>ATOM
      1 C6          -1.6420     1.8730     0.0080 ca         1 AKH      -0.103000
      2 C5          -1.6700     0.4750    -0.0120 ca         1 AKH      -0.144800
      3 C1          -2.7920    -0.4390    -0.0440 cc         1 AKH      -0.268200
      4 C2          -2.2200    -1.7030    -0.0690 cd         1 AKH      -0.094900
      5 C7          -0.3790     2.5000     0.0250 ca         1 AKH      -0.150000
      6 C8           0.8120     1.7310     0.0220 ca         1 AKH      -0.092000
      7 C9           0.7690     0.3110     0.0050 ca         1 AKH      -0.115600
      8 C10          2.0390    -0.5140    -0.0020 c          1 AKH       0.718600
      9 O11          3.0710     0.0210    -0.3840 o          1 AKH      -0.712500
     10 C4          -0.5120    -0.2730    -0.0120 ca         1 AKH       0.087100
     11 O12          2.0030    -1.6680     0.4020 o          1 AKH      -0.712500
     12 O3          -0.8500    -1.5950    -0.0510 os         1 AKH      -0.121200
     13 H6          -2.5600     2.4550     0.0080 ha         1 AKH       0.089000
     14 H7A         -0.3190     3.5850     0.0400 ha         1 AKH       0.087000
     15 H1          -3.8550    -0.2070    -0.0520 ha         1 AKH       0.187000
     16 H2          -2.6560    -2.6980    -0.0970 h4         1 AKH       0.216000
     17 H4           1.7710     2.2450     0.0360 ha         1 AKH       0.131000
@<TRIPOS>BOND
     1     1     2 ar  
     2     1     5 ar  
     3     1    13 1   
     4     2     3 1   
     5     2    10 ar  
     6     3     4 2   
     7     3    15 1   
     8     4    12 1   
     9     4    16 1   
    10     5     6 ar  
    11     5    14 1   
    12     6     7 ar  
    13     6    17 1   
    14     7     8 1   
    15     7    10 ar  
    16     8     9 1   
    17     8    11 1   
    18    10    12 1   
@<TRIPOS>SUBSTRUCTURE
     1 AKH         1 TEMP              0 ****  ****    0 ROOT
