@<TRIPOS>MOLECULE
AKH
   17    18     1     0     0
SMALL
bcc


@<TRIPOS>ATOM
      1 C6          -1.6340     1.8890    -0.0090 ca         1 AKH      -0.121000
      2 C5          -1.7050     0.4970    -0.0130 ca         1 AKH      -0.144800
      3 C1          -2.7830    -0.4530    -0.0230 cc         1 AKH      -0.218200
      4 C2          -2.1950    -1.6650    -0.0270 cd         1 AKH      -0.044900
      5 C7          -0.3800     2.4730    -0.0050 ca         1 AKH      -0.168000
      6 C8           0.7780     1.6910    -0.0040 ca         1 AKH      -0.110000
      7 C9           0.7510     0.3000    -0.0070 ca         1 AKH      -0.115600
      8 C10          2.0420    -0.5070     0.0020 c          1 AKH       0.929200
      9 O11          3.1010     0.1470    -0.0400 o          1 AKH      -0.817800
     10 C4          -0.5260    -0.2610    -0.0120 ca         1 AKH       0.087100
     11 O12          1.9270    -1.7450     0.0520 o          1 AKH      -0.817800
     12 O3          -0.8420    -1.5770    -0.0210 os         1 AKH      -0.121200
     13 H6          -2.5320     2.4940    -0.0080 ha         1 AKH       0.107000
     14 H7A         -0.2900     3.5520    -0.0020 ha         1 AKH       0.105000
     15 H1          -3.8420    -0.2530    -0.0250 ha         1 AKH       0.137000
     16 H2          -2.6020    -2.6630    -0.0340 h4         1 AKH       0.166000
     17 H4           1.7440     2.1790    -0.0010 ha         1 AKH       0.149000
@<TRIPOS>BOND
     1     1     2 ar  
     2     1     5 ar  
     3     1    13 1   
     4     2     3 1   
     5     2    10 ar  
     6     3     4 2   
     7     3    15 1   
     8     4    12 1   
     9     4    16 1   
    10     5     6 ar  
    11     5    14 1   
    12     6     7 ar  
    13     6    17 1   
    14     7     8 1   
    15     7    10 ar  
    16     8     9 1   
    17     8    11 1   
    18    10    12 1   
@<TRIPOS>SUBSTRUCTURE
     1 AKH         1 TEMP              0 ****  ****    0 ROOT
