@<TRIPOS>MOLECULE
AKI
   67    72     1     0     0
SMALL
No Charge or Current Charge


@<TRIPOS>ATOM
      1 N1           4.5560    -3.6250     1.3540 nb         1 AKI      -0.204000
      2 C2           3.2110    -3.8010     1.3580 ca         1 AKI       0.184900
      3 N3           2.2660    -2.8890     1.0070 nb         1 AKI      -0.293000
      4 C4           2.7100    -1.6790     0.6070 ca         1 AKI       0.439900
      5 C5           4.0780    -1.4200     0.5610 ca         1 AKI      -0.280800
      6 C6           4.9490    -2.4080     0.9450 ca         1 AKI       0.293300
      7 CAA          4.1270     3.4440     0.1170 ca         1 AKI      -0.113000
      8 CAB          4.6010     2.1900     0.5410 ca         1 AKI      -0.102500
      9 CAC          4.3970     1.0480    -0.2560 ca         1 AKI      -0.035800
     10 CAD          3.7060     1.1670    -1.4760 ca         1 AKI      -0.102500
     11 CAE          3.2280     2.4190    -1.9000 ca         1 AKI      -0.113000
     12 CAF          3.4400     3.5580    -1.1040 ca         1 AKI      -0.106000
     13 CAG          4.8600    -0.2570     0.1980 cc         1 AKI      -0.043400
     14 CAH          6.1870    -0.6310     0.4060 cd         1 AKI       0.089900
     15 OAI          6.2240    -1.9340     0.8540 os         1 AKI      -0.270400
     16 CAL          7.4870     0.0280     0.1220 ca         1 AKI      -0.039800
     17 CAM          8.6830    -0.5460     0.6140 ca         1 AKI      -0.080500
     18 CAN          9.9290     0.0540     0.3630 ca         1 AKI      -0.116000
     19 CAO         10.0030     1.2340    -0.3910 ca         1 AKI      -0.097000
     20 CAP          8.8280     1.8100    -0.8970 ca         1 AKI      -0.116000
     21 CAQ          7.5810     1.2120    -0.6450 ca         1 AKI      -0.080500
     22 CAV          0.3260    -0.8360     0.1910 c3         1 AKI       0.225800
     23 CAW         -0.3090     0.4880    -0.2780 c3         1 AKI      -0.044100
     24 CAX         -1.8270     0.3940    -0.3640 ca         1 AKI      -0.106300
     25 CAY         -2.6230     0.7090     0.7520 ca         1 AKI      -0.079500
     26 CAZ         -4.0240     0.6160     0.6780 ca         1 AKI      -0.139500
     27 CBA         -4.6510     0.2050    -0.5190 ca         1 AKI      -0.008000
     28 CBB         -3.8480    -0.1100    -1.6310 ca         1 AKI      -0.139500
     29 CBC         -2.4470    -0.0180    -1.5570 ca         1 AKI      -0.079500
     30 NBD         -6.0610     0.0860    -0.6730 ns         1 AKI      -0.170000
     31 CBE         -7.1220     0.3280     0.1890 c          1 AKI       0.666100
     32 NBF         -8.3380     0.0590    -0.4230 ns         1 AKI      -0.166000
     33 CBG         -9.6840     0.1480     0.0320 ca         1 AKI      -0.011000
     34 CBH        -10.0470     0.5710     1.3310 ca         1 AKI      -0.145500
     35 CBI        -11.4010     0.6320     1.7070 ca         1 AKI      -0.084500
     36 CBJ        -12.4040     0.2730     0.7930 ca         1 AKI      -0.134000
     37 CBK        -12.0530    -0.1490    -0.4990 ca         1 AKI      -0.084500
     38 CBL        -10.7000    -0.2100    -0.8750 ca         1 AKI      -0.145500
     39 OBM         -7.0000     0.7280     1.3410 o          1 AKI      -0.599100
     40 NBN          1.7900    -0.7090     0.2560 nu         1 AKI      -0.917100
     41 H2           2.8500    -4.7760     1.6810 h5         1 AKI       0.050100
     42 HAA          4.2880     4.3240     0.7350 ha         1 AKI       0.116500
     43 HAB          5.1260     2.1040     1.4900 ha         1 AKI       0.123500
     44 HAD          3.5420     0.2880    -2.0950 ha         1 AKI       0.123500
     45 HAE          2.6960     2.5070    -2.8450 ha         1 AKI       0.116500
     46 HAF          3.0700     4.5280    -1.4320 ha         1 AKI       0.116000
     47 HAM          8.6530    -1.4580     1.2050 ha         1 AKI       0.125500
     48 HAN         10.8380    -0.3990     0.7540 ha         1 AKI       0.116000
     49 HAO         10.9680     1.6980    -0.5870 ha         1 AKI       0.115000
     50 HAP          8.8820     2.7200    -1.4910 ha         1 AKI       0.116000
     51 HAQ          6.6990     1.6710    -1.0760 ha         1 AKI       0.125500
     52 HAV         -0.0760    -1.0990     1.1790 h1         1 AKI       0.062200
     53 HAVA         0.0470    -1.6360    -0.5100 h1         1 AKI       0.062200
     54 HAW         -0.0200     1.2900     0.4120 hc         1 AKI       0.052700
     55 HAWA         0.1070     0.7590    -1.2570 hc         1 AKI       0.052700
     56 HAY         -2.1560     1.0250     1.6830 ha         1 AKI       0.114500
     57 HAZ         -4.5990     0.8670     1.5630 ha         1 AKI       0.126000
     58 HBB         -4.3090    -0.4310    -2.5620 ha         1 AKI       0.126000
     59 HBC         -1.8460    -0.2690    -2.4280 ha         1 AKI       0.114500
     60 HNBD        -6.3400    -0.2380    -1.5890 hn         1 AKI       0.148000
     61 HNBF        -8.2570    -0.2630    -1.3780 hn         1 AKI       0.146000
     62 HBH         -9.3000     0.8560     2.0650 ha         1 AKI       0.124500
     63 HBI        -11.6720     0.9590     2.7080 ha         1 AKI       0.114000
     64 HBJ        -13.4510     0.3210     1.0850 ha         1 AKI       0.116000
     65 HBK        -12.8290    -0.4280    -1.2100 ha         1 AKI       0.114000
     66 HBL        -10.4420    -0.5390    -1.8790 ha         1 AKI       0.124500
     67 HNBN         2.2040     0.1810    -0.0190 hn         1 AKI       0.502000
@<TRIPOS>BOND
     1     1     2 ar  
     2     1     6 ar  
     3     2     3 ar  
     4     2    41 1   
     5     3     4 ar  
     6     4     5 ar  
     7     4    40 1   
     8     5     6 ar  
     9     5    13 1   
    10     6    15 1   
    11     7     8 ar  
    12     7    12 ar  
    13     7    42 1   
    14     8     9 ar  
    15     8    43 1   
    16     9    10 ar  
    17     9    13 1   
    18    10    11 ar  
    19    10    44 1   
    20    11    12 ar  
    21    11    45 1   
    22    12    46 1   
    23    13    14 2   
    24    14    15 1   
    25    14    16 1   
    26    16    17 ar  
    27    16    21 ar  
    28    17    18 ar  
    29    17    47 1   
    30    18    19 ar  
    31    18    48 1   
    32    19    20 ar  
    33    19    49 1   
    34    20    21 ar  
    35    20    50 1   
    36    21    51 1   
    37    22    23 1   
    38    22    40 1   
    39    22    52 1   
    40    22    53 1   
    41    23    24 1   
    42    23    54 1   
    43    23    55 1   
    44    24    25 ar  
    45    24    29 ar  
    46    25    26 ar  
    47    25    56 1   
    48    26    27 ar  
    49    26    57 1   
    50    27    28 ar  
    51    27    30 1   
    52    28    29 ar  
    53    28    58 1   
    54    29    59 1   
    55    30    31 1   
    56    30    60 1   
    57    31    32 1   
    58    31    39 2   
    59    32    33 1   
    60    32    61 1   
    61    33    34 ar  
    62    33    38 ar  
    63    34    35 ar  
    64    34    62 1   
    65    35    36 ar  
    66    35    63 1   
    67    36    37 ar  
    68    36    64 1   
    69    37    38 ar  
    70    37    65 1   
    71    38    66 1   
    72    40    67 1   
@<TRIPOS>SUBSTRUCTURE
     1 AKI         1 TEMP              0 ****  ****    0 ROOT
