@<TRIPOS>MOLECULE
AKI
   67    72     1     0     0
SMALL
bcc


@<TRIPOS>ATOM
      1 N1           4.5060    -3.6350     0.3090 nb         1 AKI      -0.730000
      2 C2           3.1970    -3.8070     0.2040 ca         1 AKI       0.710900
      3 N3           2.2610    -2.8780     0.0560 nb         1 AKI      -0.819000
      4 C4           2.6240    -1.5930    -0.0200 ca         1 AKI       0.768200
      5 C5           4.0020    -1.2810     0.0400 ca         1 AKI      -0.411400
      6 C6           4.8420    -2.3610     0.2230 ca         1 AKI       0.621600
      7 CAA          4.2520     3.5260     0.7490 ca         1 AKI      -0.131000
      8 CAB          4.6720     2.2110     0.8820 ca         1 AKI      -0.120500
      9 CAC          4.4090     1.2820    -0.1230 ca         1 AKI      -0.035800
     10 CAD          3.7130     1.6920    -1.2610 ca         1 AKI      -0.120500
     11 CAE          3.2890     3.0070    -1.3900 ca         1 AKI      -0.131000
     12 CAF          3.5580     3.9270    -0.3850 ca         1 AKI      -0.124000
     13 CAG          4.8420    -0.1160     0.0150 cc         1 AKI      -0.043400
     14 CAH          6.1100    -0.5860     0.1810 cd         1 AKI       0.089900
     15 OAI          6.1100    -1.9480     0.3120 os         1 AKI      -0.270400
     16 CAL          7.4120     0.0640     0.2350 ca         1 AKI      -0.039800
     17 CAM          8.4530    -0.4960     0.9800 ca         1 AKI      -0.098500
     18 CAN          9.6900     0.1270     1.0350 ca         1 AKI      -0.134000
     19 CAO          9.9090     1.3140     0.3480 ca         1 AKI      -0.115000
     20 CAP          8.8810     1.8710    -0.4020 ca         1 AKI      -0.134000
     21 CAQ          7.6440     1.2520    -0.4630 ca         1 AKI      -0.098500
     22 CAV          0.2580    -0.8960    -0.1410 c3         1 AKI       0.225800
     23 CAW         -0.4700     0.2180    -0.8890 c3         1 AKI      -0.044100
     24 CAX         -1.9590     0.0290    -0.8230 ca         1 AKI      -0.106300
     25 CAY         -2.7060     0.5620     0.2230 ca         1 AKI      -0.097500
     26 CAZ         -4.0730     0.3560     0.3280 ca         1 AKI      -0.157500
     27 CBA         -4.7370    -0.3940    -0.6420 ca         1 AKI       0.084600
     28 CBB         -3.9990    -0.9320    -1.6960 ca         1 AKI      -0.157500
     29 CBC         -2.6310    -0.7280    -1.7770 ca         1 AKI      -0.097500
     30 NBD         -6.1040    -0.6830    -0.5900 ns         1 AKI      -0.496100
     31 CBE         -7.0860     0.1240    -0.0790 c          1 AKI       0.800100
     32 NBF         -8.3250    -0.4570    -0.1540 ns         1 AKI      -0.492100
     33 CBG         -9.5390     0.0940     0.2630 ca         1 AKI       0.081600
     34 CBH         -9.7940     1.4660     0.3060 ca         1 AKI      -0.163500
     35 CBI        -11.0460     1.9200     0.7000 ca         1 AKI      -0.102500
     36 CBJ        -12.0590     1.0360     1.0430 ca         1 AKI      -0.152000
     37 CBK        -11.8070    -0.3280     0.9860 ca         1 AKI      -0.102500
     38 CBL        -10.5600    -0.7950     0.6050 ca         1 AKI      -0.163500
     39 OBM         -6.8790     1.2290     0.3870 o          1 AKI      -0.599100
     40 NBN          1.6830    -0.6520    -0.1540 nu         1 AKI      -0.861900
     41 H2           2.8420    -4.8300     0.2540 h5         1 AKI       0.050100
     42 HAA          4.4620     4.2390     1.5360 ha         1 AKI       0.134500
     43 HAB          5.2040     1.8990     1.7720 ha         1 AKI       0.141500
     44 HAD          3.5190     0.9820    -2.0560 ha         1 AKI       0.141500
     45 HAE          2.7520     3.3140    -2.2780 ha         1 AKI       0.134500
     46 HAF          3.2270     4.9520    -0.4850 ha         1 AKI       0.134000
     47 HAM          8.3000    -1.4150     1.5320 ha         1 AKI       0.143500
     48 HAN         10.4840    -0.3150     1.6220 ha         1 AKI       0.134000
     49 HAO         10.8760     1.7980     0.3920 ha         1 AKI       0.133000
     50 HAP          9.0450     2.7900    -0.9500 ha         1 AKI       0.134000
     51 HAQ          6.8630     1.6880    -1.0710 ha         1 AKI       0.143500
     52 HAV         -0.1150    -0.9590     0.8880 h1         1 AKI       0.062200
     53 HAVA         0.0570    -1.8580    -0.6120 h1         1 AKI       0.062200
     54 HAW         -0.2000     1.1850    -0.4550 hc         1 AKI       0.052700
     55 HAWA        -0.1350     0.2290    -1.9290 hc         1 AKI       0.052700
     56 HAY         -2.2090     1.1480     0.9880 ha         1 AKI       0.132500
     57 HAZ         -4.6060     0.7730     1.1680 ha         1 AKI       0.144000
     58 HBB         -4.5000    -1.5120    -2.4630 ha         1 AKI       0.144000
     59 HBC         -2.0850    -1.1580    -2.6080 ha         1 AKI       0.132500
     60 HNBD        -6.3940    -1.4880    -1.1250 hn         1 AKI       0.314500
     61 HNBF        -8.3590    -1.4420    -0.3700 hn         1 AKI       0.312500
     62 HBH         -9.0360     2.1810     0.0290 ha         1 AKI       0.142500
     63 HBI        -11.2270     2.9870     0.7290 ha         1 AKI       0.132000
     64 HBJ        -13.0290     1.4040     1.3470 ha         1 AKI       0.134000
     65 HBK        -12.5820    -1.0380     1.2450 ha         1 AKI       0.132000
     66 HBL        -10.3740    -1.8630     0.5730 ha         1 AKI       0.142500
     67 HNBN         1.9780     0.3070    -0.0630 hn         1 AKI       0.446800
@<TRIPOS>BOND
     1     1     2 ar  
     2     1     6 ar  
     3     2     3 ar  
     4     2    41 1   
     5     3     4 ar  
     6     4     5 ar  
     7     4    40 1   
     8     5     6 ar  
     9     5    13 1   
    10     6    15 1   
    11     7     8 ar  
    12     7    12 ar  
    13     7    42 1   
    14     8     9 ar  
    15     8    43 1   
    16     9    10 ar  
    17     9    13 1   
    18    10    11 ar  
    19    10    44 1   
    20    11    12 ar  
    21    11    45 1   
    22    12    46 1   
    23    13    14 2   
    24    14    15 1   
    25    14    16 1   
    26    16    17 ar  
    27    16    21 ar  
    28    17    18 ar  
    29    17    47 1   
    30    18    19 ar  
    31    18    48 1   
    32    19    20 ar  
    33    19    49 1   
    34    20    21 ar  
    35    20    50 1   
    36    21    51 1   
    37    22    23 1   
    38    22    40 1   
    39    22    52 1   
    40    22    53 1   
    41    23    24 1   
    42    23    54 1   
    43    23    55 1   
    44    24    25 ar  
    45    24    29 ar  
    46    25    26 ar  
    47    25    56 1   
    48    26    27 ar  
    49    26    57 1   
    50    27    28 ar  
    51    27    30 1   
    52    28    29 ar  
    53    28    58 1   
    54    29    59 1   
    55    30    31 1   
    56    30    60 1   
    57    31    32 1   
    58    31    39 2   
    59    32    33 1   
    60    32    61 1   
    61    33    34 ar  
    62    33    38 ar  
    63    34    35 ar  
    64    34    62 1   
    65    35    36 ar  
    66    35    63 1   
    67    36    37 ar  
    68    36    64 1   
    69    37    38 ar  
    70    37    65 1   
    71    38    66 1   
    72    40    67 1   
@<TRIPOS>SUBSTRUCTURE
     1 AKI         1 TEMP              0 ****  ****    0 ROOT
