@<TRIPOS>MOLECULE
AKJ
   42    43     1     0     0
SMALL
No Charge or Current Charge


@<TRIPOS>ATOM
      1 C1           2.6890    -2.4380    -1.1220 c3         1 AKJ       0.385300
      2 O2           1.8560     0.9810     1.1470 os         1 AKJ      -0.326100
      3 C3           0.7930     0.1330     0.8800 ca         1 AKJ       0.146100
      4 C4          -0.4900     0.4110     1.3940 ca         1 AKJ      -0.153000
      5 C5          -1.5820    -0.4460     1.1330 ca         1 AKJ      -0.129600
      6 C6          -1.3510    -1.6130     0.3700 ca         1 AKJ      -0.109000
      7 C7          -0.0680    -1.9120    -0.1210 ca         1 AKJ      -0.084000
      8 C8           1.6020     2.3020     0.5870 c5         1 AKJ       0.134300
      9 C10          3.7750     2.9500    -0.1790 c5         1 AKJ       0.157600
     10 C11          2.8070     3.1950     0.9970 c5         1 AKJ      -0.113400
     11 C14         -4.7710     0.6360     0.0320 c3         1 AKJ      -0.050700
     12 C16         -6.1420     0.2630    -0.5750 c3         1 AKJ      -0.089600
     13 F1           2.4490    -3.5960    -0.4630 f          1 AKJ      -0.131500
     14 F2           1.9970    -2.4850    -2.2850 f          1 AKJ      -0.131500
     15 O1           2.3070    -1.2920    -0.3300 os         1 AKJ      -0.379100
     16 C2           1.0190    -1.0450     0.1320 ca         1 AKJ       0.071100
     17 O3           2.8940     3.0210    -1.3120 os         1 AKJ      -0.453000
     18 C9           1.7230     2.2410    -0.9790 c5         1 AKJ       0.127600
     19 O4          -3.0460     0.5470     2.7300 o          1 AKJ      -0.522100
     20 C13         -4.2320    -0.5060     0.9370 c3         1 AKJ      -0.173400
     21 C15         -3.7660     1.0420    -1.0730 c3         1 AKJ      -0.089600
     22 H1           3.7570    -2.3920    -1.3590 h3         1 AKJ       0.103700
     23 H2          -0.6410     1.2970     2.0060 ha         1 AKJ       0.140000
     24 H3          -2.1500    -2.3210     0.1680 ha         1 AKJ       0.122000
     25 H4           0.0580    -2.8260    -0.6920 ha         1 AKJ       0.136000
     26 H5           0.6480     2.7130     0.9400 h1         1 AKJ       0.067700
     27 H6           4.5620     3.7120    -0.2590 h1         1 AKJ       0.052200
     28 H7           4.2380     1.9540    -0.1360 h1         1 AKJ       0.052200
     29 H8           2.5190     4.2510     1.0530 hc         1 AKJ       0.070200
     30 H9           3.2390     2.9190     1.9660 hc         1 AKJ       0.070200
     31 H10         -4.9320     1.5180     0.6680 hc         1 AKJ       0.062700
     32 H11         -6.0540    -0.6130    -1.2290 hc         1 AKJ       0.035033
     33 H12         -6.8670     0.0320     0.2140 hc         1 AKJ       0.035033
     34 H13         -6.5430     1.0940    -1.1670 hc         1 AKJ       0.035033
     35 H14          1.8650     1.2160    -1.3470 h1         1 AKJ       0.057200
     36 H15          0.8460     2.6710    -1.4810 h1         1 AKJ       0.057200
     37 H16         -5.0010    -0.7560     1.6770 hc         1 AKJ       0.063700
     38 H17         -4.0510    -1.3680     0.2900 hc         1 AKJ       0.063700
     39 H18         -3.5200     0.1850    -1.7120 hc         1 AKJ       0.035033
     40 H19         -4.1890     1.8310    -1.7080 hc         1 AKJ       0.035033
     41 H20         -2.8360     1.4290    -0.6420 hc         1 AKJ       0.035033
     42 C12         -2.9510    -0.0930     1.6890 c          1 AKJ       0.582700
@<TRIPOS>BOND
     1     1    13 1   
     2     1    14 1   
     3     1    15 1   
     4     1    22 1   
     5     2     3 1   
     6     2     8 1   
     7     3     4 ar  
     8     3    16 ar  
     9     4     5 ar  
    10     4    23 1   
    11     5     6 ar  
    12     5    42 1   
    13     6     7 ar  
    14     6    24 1   
    15     7    16 ar  
    16     7    25 1   
    17     8    10 1   
    18     8    18 1   
    19     8    26 1   
    20     9    10 1   
    21     9    17 1   
    22     9    27 1   
    23     9    28 1   
    24    10    29 1   
    25    10    30 1   
    26    11    12 1   
    27    11    20 1   
    28    11    21 1   
    29    11    31 1   
    30    12    32 1   
    31    12    33 1   
    32    12    34 1   
    33    15    16 1   
    34    17    18 1   
    35    18    35 1   
    36    18    36 1   
    37    19    42 2   
    38    20    37 1   
    39    20    38 1   
    40    20    42 1   
    41    21    39 1   
    42    21    40 1   
    43    21    41 1   
@<TRIPOS>SUBSTRUCTURE
     1 AKJ         1 TEMP              0 ****  ****    0 ROOT
