@<TRIPOS>MOLECULE
AKJ
   42    43     1     0     0
SMALL
bcc


@<TRIPOS>ATOM
      1 C1           2.9450    -2.1440    -0.6430 c3         1 AKJ       0.604700
      2 O2           2.1130     0.7410     0.7640 os         1 AKJ      -0.302900
      3 C3           0.9560     0.0920     0.5880 ca         1 AKJ       0.146100
      4 C4          -0.3010     0.6780     0.5720 ca         1 AKJ      -0.171000
      5 C5          -1.4510    -0.1000     0.4190 ca         1 AKJ      -0.129600
      6 C6          -1.3400    -1.4780     0.2900 ca         1 AKJ      -0.127000
      7 C7          -0.0870    -2.0750     0.3030 ca         1 AKJ      -0.102000
      8 C8           2.1390     2.1650     0.7950 c5         1 AKJ       0.111100
      9 C10          4.2180     2.4330    -0.2870 c5         1 AKJ       0.134400
     10 C11          3.5740     2.5650     1.0850 c5         1 AKJ      -0.113400
     11 C14         -5.3220     0.5250     0.0770 c3         1 AKJ      -0.050700
     12 C16         -6.5010    -0.4300     0.2420 c3         1 AKJ      -0.089600
     13 F1           2.2540    -3.0250    -1.4080 f          1 AKJ      -0.252800
     14 F2           3.0680    -1.0320    -1.3980 f          1 AKJ      -0.252800
     15 O1           2.2890    -1.8890     0.5180 os         1 AKJ      -0.355900
     16 C2           1.0460    -1.3010     0.4430 ca         1 AKJ       0.071100
     17 O3           3.2030     2.7770    -1.2200 os         1 AKJ      -0.406600
     18 C9           1.9350     2.7740    -0.5880 c5         1 AKJ       0.104400
     19 O4          -2.8310     1.7960     0.5800 o          1 AKJ      -0.522100
     20 C13         -4.0170    -0.2460     0.2520 c3         1 AKJ      -0.173400
     21 C15         -5.3940     1.2230    -1.2780 c3         1 AKJ      -0.089600
     22 H1           3.9250    -2.5500    -0.4070 h3         1 AKJ       0.103700
     23 H2          -0.4130     1.7470     0.6820 ha         1 AKJ       0.158000
     24 H3          -2.2110    -2.1080     0.1810 ha         1 AKJ       0.140000
     25 H4           0.0030    -3.1500     0.2240 ha         1 AKJ       0.154000
     26 H5           1.4330     2.5490     1.5380 h1         1 AKJ       0.067700
     27 H6           5.0700     3.1050    -0.4140 h1         1 AKJ       0.052200
     28 H7           4.5660     1.4100    -0.4640 h1         1 AKJ       0.052200
     29 H8           3.5900     3.6010     1.4270 hc         1 AKJ       0.070200
     30 H9           4.0430     1.9480     1.8510 hc         1 AKJ       0.070200
     31 H10         -5.3880     1.2820     0.8640 hc         1 AKJ       0.062700
     32 H11         -6.4820    -1.2150    -0.5170 hc         1 AKJ       0.035033
     33 H12         -6.4940    -0.9150     1.2200 hc         1 AKJ       0.035033
     34 H13         -7.4490     0.1010     0.1440 hc         1 AKJ       0.035033
     35 H14          1.2160     2.2230    -1.2010 h1         1 AKJ       0.057200
     36 H15          1.5580     3.7970    -0.4770 h1         1 AKJ       0.057200
     37 H16         -4.0790    -0.8880     1.1400 hc         1 AKJ       0.063700
     38 H17         -3.8790    -0.9380    -0.5870 hc         1 AKJ       0.063700
     39 H18         -5.3280     0.4960    -2.0910 hc         1 AKJ       0.035033
     40 H19         -6.3430     1.7520    -1.3870 hc         1 AKJ       0.035033
     41 H20         -4.5950     1.9510    -1.4130 hc         1 AKJ       0.035033
     42 C12         -2.7760     0.5950     0.4190 c          1 AKJ       0.582700
@<TRIPOS>BOND
     1     1    13 1   
     2     1    14 1   
     3     1    15 1   
     4     1    22 1   
     5     2     3 1   
     6     2     8 1   
     7     3     4 ar  
     8     3    16 ar  
     9     4     5 ar  
    10     4    23 1   
    11     5     6 ar  
    12     5    42 1   
    13     6     7 ar  
    14     6    24 1   
    15     7    16 ar  
    16     7    25 1   
    17     8    10 1   
    18     8    18 1   
    19     8    26 1   
    20     9    10 1   
    21     9    17 1   
    22     9    27 1   
    23     9    28 1   
    24    10    29 1   
    25    10    30 1   
    26    11    12 1   
    27    11    20 1   
    28    11    21 1   
    29    11    31 1   
    30    12    32 1   
    31    12    33 1   
    32    12    34 1   
    33    15    16 1   
    34    17    18 1   
    35    18    35 1   
    36    18    36 1   
    37    19    42 2   
    38    20    37 1   
    39    20    38 1   
    40    20    42 1   
    41    21    39 1   
    42    21    40 1   
    43    21    41 1   
@<TRIPOS>SUBSTRUCTURE
     1 AKJ         1 TEMP              0 ****  ****    0 ROOT
