@<TRIPOS>MOLECULE
AKK
   11    10     1     0     0
SMALL
bcc


@<TRIPOS>ATOM
      1 CA          -1.5190     0.5470     0.0560 c3         1 AKK      -0.038900
      2 CB          -0.6080    -0.6440     0.0840 c2         1 AKK      -0.272200
      3 CC           0.7290    -0.5880     0.0810 c2         1 AKK       0.031000
      4 ND           1.5140     0.5500     0.1040 nv         1 AKK      -0.824600
      5 HA1         -2.5000     0.2790    -0.3370 hc         1 AKK       0.030033
      6 HA2         -1.6840     0.9740     1.0490 hc         1 AKK       0.030033
      7 HA3         -1.1340     1.3530    -0.5750 hc         1 AKK       0.030033
      8 HND1         2.3750     0.4800    -0.4150 hn         1 AKK       0.380300
      9 HB1         -1.0610    -1.6250     0.1560 ha         1 AKK       0.126000
     10 HC1          1.2990    -1.5100     0.1130 h4         1 AKK       0.128000
     11 HND2         1.0350     1.4130    -0.1030 hn         1 AKK       0.380300
@<TRIPOS>BOND
     1     1     2 1   
     2     1     5 1   
     3     1     6 1   
     4     1     7 1   
     5     2     3 2   
     6     2     9 1   
     7     3     4 1   
     8     3    10 1   
     9     4     8 1   
    10     4    11 1   
@<TRIPOS>SUBSTRUCTURE
     1 AKK         1 TEMP              0 ****  ****    0 ROOT
