@<TRIPOS>MOLECULE
AKK
   11    10     1     0     0
SMALL
No Charge or Current Charge


@<TRIPOS>ATOM
      1 CA          -1.5130     0.5720     0.1170 c3         1 AKK      -0.038900
      2 CB          -0.5690    -0.6190     0.2080 c2         1 AKK      -0.322200
      3 CC           0.7660    -0.6360     0.0940 c2         1 AKK      -0.019000
      4 ND           1.4610     0.5470    -0.1440 nv         1 AKK      -0.935000
      5 HA1         -2.2280     0.4370    -0.7040 hc         1 AKK       0.030033
      6 HA2         -2.0930     0.6770     1.0420 hc         1 AKK       0.030033
      7 HA3         -0.9960     1.5230    -0.0530 hc         1 AKK       0.030033
      8 HND1         2.4260     0.4890    -0.4750 hn         1 AKK       0.435500
      9 HB1         -1.0880    -1.5620     0.3940 ha         1 AKK       0.176000
     10 HC1          1.3510    -1.5620     0.1790 h4         1 AKK       0.178000
     11 HND2         0.9290     1.3620    -0.4470 hn         1 AKK       0.435500
@<TRIPOS>BOND
     1     1     2 1   
     2     1     5 1   
     3     1     6 1   
     4     1     7 1   
     5     2     3 2   
     6     2     9 1   
     7     3     4 1   
     8     3    10 1   
     9     4     8 1   
    10     4    11 1   
@<TRIPOS>SUBSTRUCTURE
     1 AKK         1 TEMP              0 ****  ****    0 ROOT
