@<TRIPOS>MOLECULE
AKL
   17    16     1     0     0
SMALL
bcc


@<TRIPOS>ATOM
      1 N            4.0080    -0.7390    -1.3770 n8         1 AKL      -0.895800
      2 CA           3.5840    -0.3900    -0.0280 c3         1 AKL       0.095500
      3 CB           4.5690     0.5560     0.6350 c3         1 AKL      -0.199400
      4 CG           4.0410     1.0040     2.0000 c          1 AKL       0.926600
      5 OD2          4.8380     1.5090     2.8080 o          1 AKL      -0.831300
      6 OD1          2.8110     0.8280     2.1820 o          1 AKL      -0.831300
      7 C            2.2110     0.2750    -0.0300 c          1 AKL       0.614100
      8 O            2.0390     1.3300    -0.6100 o          1 AKL      -0.588100
      9 CM           0.9510    -0.4580     0.3980 c3         1 AKL      -0.025000
     10 CL1          1.1720    -1.8930     1.4380 cl         1 AKL      -0.207400
     11 H            3.9510     0.0750    -1.9780 hn         1 AKL       0.327800
     12 H2           3.3880    -1.4320    -1.7760 hn         1 AKL       0.327800
     13 HA           3.5490    -1.3130     0.5500 h1         1 AKL       0.077700
     14 HB2          5.5480     0.0800     0.7290 hc         1 AKL       0.038700
     15 HB3          4.7190     1.4420     0.0060 hc         1 AKL       0.038700
     16 HM1          0.4380    -0.8010    -0.5020 h1         1 AKL       0.065200
     17 HM2          0.2940     0.2330     0.9210 h1         1 AKL       0.065200
@<TRIPOS>BOND
     1     1     2 1   
     2     1    11 1   
     3     1    12 1   
     4     2     3 1   
     5     2     7 1   
     6     2    13 1   
     7     3     4 1   
     8     3    14 1   
     9     3    15 1   
    10     4     5 1   
    11     4     6 1   
    12     7     8 2   
    13     7     9 1   
    14     9    10 1   
    15     9    16 1   
    16     9    17 1   
@<TRIPOS>SUBSTRUCTURE
     1 AKL         1 TEMP              0 ****  ****    0 ROOT
