@<TRIPOS>MOLECULE
AKL
   17    16     1     0     0
SMALL
No Charge or Current Charge


@<TRIPOS>ATOM
      1 N            4.0490    -0.6280    -1.4530 n8         1 AKL      -0.895800
      2 CA           3.5250    -0.2510    -0.0950 c3         1 AKL       0.095500
      3 CB           4.5180     0.7510     0.5490 c3         1 AKL      -0.199400
      4 CG           4.2070     0.9010     2.0440 c          1 AKL       0.926600
      5 OD2          4.7020     0.0970     2.8230 o          1 AKL      -0.831300
      6 OD1          3.4320     1.7790     2.3940 o          1 AKL      -0.831300
      7 C            2.0360     0.2690    -0.0890 c          1 AKL       0.614100
      8 O            1.7210     1.3870    -0.4970 o          1 AKL      -0.588100
      9 CM           0.9780    -0.7310     0.4040 c3         1 AKL      -0.025000
     10 Cl1          0.8270    -0.7800     2.2190 cl         1 AKL      -0.207400
     11 H            3.9860     0.1840    -2.0780 hn         1 AKL       0.327800
     12 H2           3.4400    -1.3330    -1.8830 hn         1 AKL       0.327800
     13 HA           3.5340    -1.1650     0.5170 h1         1 AKL       0.077700
     14 HB2          5.5150     0.3080     0.4310 hc         1 AKL       0.038700
     15 HB3          4.3970     1.7080     0.0290 hc         1 AKL       0.038700
     16 HM1          1.2430    -1.7370     0.0600 h1         1 AKL       0.065200
     17 HM2          0.0010    -0.4520    -0.0090 h1         1 AKL       0.065200
@<TRIPOS>BOND
     1     1     2 1   
     2     1    11 1   
     3     1    12 1   
     4     2     3 1   
     5     2     7 1   
     6     2    13 1   
     7     3     4 1   
     8     3    14 1   
     9     3    15 1   
    10     4     5 1   
    11     4     6 1   
    12     7     8 2   
    13     7     9 1   
    14     9    10 1   
    15     9    16 1   
    16     9    17 1   
@<TRIPOS>SUBSTRUCTURE
     1 AKL         1 TEMP              0 ****  ****    0 ROOT
