@<TRIPOS>MOLECULE
AKM
   63    65     1     0     0
SMALL
abcg2


@<TRIPOS>ATOM
      1 O2P         -0.5430     1.1800     1.9140 o          1 AKM      -0.848500
      2 P           -0.1910     2.1040     0.7920 p5         1 AKM       1.457800
      3 O1P          0.0470     3.5590     1.0470 o          1 AKM      -0.848500
      4 OPP          1.0340     1.4660    -0.0990 os         1 AKM      -0.685800
      5 P2           2.6180     1.7580     0.2030 p5         1 AKM       1.455800
      6 O3P          2.8660     1.8940     1.6700 o          1 AKM      -0.846500
      7 O1           3.0960     0.2580    -0.3150 os         1 AKM      -0.544400
      8 C1           4.4370    -0.0820    -0.1780 c6         1 AKM       0.460300
      9 C2           4.9480    -0.6710    -1.4790 c6         1 AKM      -0.120400
     10 C3           6.3750    -1.2190    -1.3600 c6         1 AKM       0.202200
     11 C3M          7.3850    -0.0670    -1.2760 c3         1 AKM      -0.118100
     12 N3           6.6430    -2.0220    -2.5530 n8         1 AKM      -0.970200
     13 C4           6.4160    -2.1510    -0.1190 c6         1 AKM       0.369000
     14 O4A          5.6610    -3.2810    -0.4580 oh         1 AKM      -0.725000
     15 O4B          7.7530    -2.4910     0.1080 oh         1 AKM      -0.725000
     16 C5           5.7820    -1.5180     1.1500 c6         1 AKM       0.138300
     17 C6           6.6180    -0.5130     1.9350 c3         1 AKM      -0.113100
     18 O5           4.4880    -1.0340     0.8560 os         1 AKM      -0.440000
     19 O4P          3.1370     2.7800    -0.7580 o          1 AKM      -0.846500
     20 O6          -1.2930     1.9320    -0.4200 os         1 AKM      -0.567400
     21 C11         -2.5980     2.4040    -0.1600 c3         1 AKM       0.225600
     22 C10         -3.5380     1.9020    -1.2280 c5         1 AKM       0.167300
     23 C9          -4.9470     2.4820    -1.0990 c5         1 AKM       0.126300
     24 O3          -5.0220     3.6660    -1.8540 oh         1 AKM      -0.703000
     25 C8          -5.8250     1.3400    -1.6110 c5         1 AKM      -0.155400
     26 C7          -4.9640     0.0830    -1.4610 c5         1 AKM       0.348700
     27 O4          -3.6700     0.4940    -1.1310 os         1 AKM      -0.402000
     28 N11         -5.4240    -0.8990    -0.4790 n          1 AKM      -0.311000
     29 C21         -5.5980    -0.5290     0.8350 c          1 AKM       0.623000
     30 O21         -5.4310     0.6010     1.2420 o          1 AKM      -0.530000
     31 N31         -5.9840    -1.5500     1.6630 ns         1 AKM      -0.467500
     32 C41         -6.2190    -2.8750     1.3420 c          1 AKM       0.599200
     33 O41         -6.5690    -3.6610     2.2040 o          1 AKM      -0.565000
     34 C51         -6.0060    -3.1940    -0.0560 cc         1 AKM      -0.297400
     35 C5A         -6.2310    -4.5900    -0.5520 c3         1 AKM      -0.013900
     36 C61         -5.6200    -2.1970    -0.8710 cd         1 AKM       0.023600
     37 H2           5.0410     0.7980     0.0940 h2         1 AKM       0.013700
     38 H3           4.2780    -1.4740    -1.7930 hc         1 AKM       0.073700
     39 H4           4.9170     0.1030    -2.2520 hc         1 AKM       0.073700
     40 H5           7.2370     0.6170    -0.4430 hc         1 AKM       0.036033
     41 H6           8.4060    -0.4410    -1.2160 hc         1 AKM       0.036033
     42 H7           7.3040     0.5280    -2.1880 hc         1 AKM       0.036033
     43 H8           6.5900    -1.4080    -3.3590 hn         1 AKM       0.378000
     44 H9           7.6040    -2.3430    -2.5320 hn         1 AKM       0.378000
     45 H11          5.3680    -3.7270     0.3450 ho         1 AKM       0.490000
     46 H12          7.8220    -3.0360     0.9010 ho         1 AKM       0.490000
     47 H13          5.6140    -2.3530     1.8460 h1         1 AKM       0.032700
     48 H14          6.1000    -0.2760     2.8640 hc         1 AKM       0.041033
     49 H15          7.5860    -0.9350     2.1970 hc         1 AKM       0.041033
     50 H16          6.7970     0.4250     1.4170 hc         1 AKM       0.041033
     51 H18         -2.9620     2.0690     0.8180 h1         1 AKM       0.030700
     52 H19         -2.6280     3.5000    -0.1670 h1         1 AKM       0.030700
     53 H20         -3.1450     2.1680    -2.2200 h1         1 AKM       0.071700
     54 H21         -5.1720     2.6810    -0.0480 h1         1 AKM       0.072700
     55 H22         -5.8340     4.1220    -1.6150 ho         1 AKM       0.487000
     56 H23         -6.7850     1.2640    -1.1030 hc         1 AKM       0.050700
     57 H24         -6.0270     1.4960    -2.6720 hc         1 AKM       0.050700
     58 H25         -4.9520    -0.4710    -2.4030 h2         1 AKM       0.044700
     59 H26         -6.1160    -1.2890     2.6330 hn         1 AKM       0.338500
     60 H27         -6.3110    -5.2890     0.2770 hc         1 AKM       0.037367
     61 H28         -7.1510    -4.6660    -1.1320 hc         1 AKM       0.037367
     62 H29         -5.4120    -4.9240    -1.1890 hc         1 AKM       0.037367
     63 H30         -5.4420    -2.3820    -1.9230 h4         1 AKM       0.197000
@<TRIPOS>BOND
     1     1     2 1   
     2     2     3 1   
     3     2     4 1   
     4     2    20 1   
     5     4     5 1   
     6     5     6 1   
     7     5     7 1   
     8     5    19 1   
     9     7     8 1   
    10     8     9 1   
    11     8    18 1   
    12     8    37 1   
    13     9    10 1   
    14     9    38 1   
    15     9    39 1   
    16    10    11 1   
    17    10    12 1   
    18    10    13 1   
    19    11    40 1   
    20    11    41 1   
    21    11    42 1   
    22    12    43 1   
    23    12    44 1   
    24    13    14 1   
    25    13    15 1   
    26    13    16 1   
    27    14    45 1   
    28    15    46 1   
    29    16    17 1   
    30    16    18 1   
    31    16    47 1   
    32    17    48 1   
    33    17    49 1   
    34    17    50 1   
    35    20    21 1   
    36    21    22 1   
    37    21    51 1   
    38    21    52 1   
    39    22    23 1   
    40    22    27 1   
    41    22    53 1   
    42    23    24 1   
    43    23    25 1   
    44    23    54 1   
    45    24    55 1   
    46    25    26 1   
    47    25    56 1   
    48    25    57 1   
    49    26    27 1   
    50    26    28 1   
    51    26    58 1   
    52    28    29 1   
    53    28    36 1   
    54    29    30 2   
    55    29    31 1   
    56    31    32 1   
    57    31    59 1   
    58    32    33 2   
    59    32    34 1   
    60    34    35 1   
    61    34    36 2   
    62    35    60 1   
    63    35    61 1   
    64    35    62 1   
    65    36    63 1   
@<TRIPOS>SUBSTRUCTURE
     1 AKM         1 TEMP              0 ****  ****    0 ROOT
