@<TRIPOS>MOLECULE
AKM
   63    65     1     0     0
SMALL
No Charge or Current Charge


@<TRIPOS>ATOM
      1 O2P          0.4920     4.8330     0.7600 o          1 AKM      -0.848500
      2 P            0.8700     3.8140    -0.2640 p5         1 AKM       1.457800
      3 O1P          2.1750     4.1260    -0.9220 o          1 AKM      -0.848500
      4 OPP          0.7870     2.3130     0.2050 os         1 AKM      -0.685800
      5 P2           1.4790     2.0530     1.5960 p5         1 AKM       1.455800
      6 O3P          0.6270     2.4770     2.7470 o          1 AKM      -0.846500
      7 O1           1.4860     0.4460     1.5300 os         1 AKM      -0.544400
      8 C1           2.5600    -0.2220     0.8780 c6         1 AKM       0.460300
      9 C2           2.5950     0.0160    -0.6600 c6         1 AKM      -0.120400
     10 C3           3.7090    -0.8210    -1.3580 c6         1 AKM       0.202200
     11 C3M          5.1140    -0.1820    -1.0980 c3         1 AKM      -0.118100
     12 N3           3.4990    -0.7130    -2.8250 n8         1 AKM      -0.970200
     13 C4           3.5790    -2.3630    -0.9070 c6         1 AKM       0.369000
     14 O4A          2.4110    -2.9080    -1.5200 oh         1 AKM      -0.725000
     15 O4B          4.6520    -3.1530    -1.4050 oh         1 AKM      -0.725000
     16 C5           3.4410    -2.4960     0.6650 c6         1 AKM       0.138300
     17 C6           4.7190    -2.3060     1.5440 c3         1 AKM      -0.113100
     18 O5           2.3830    -1.6320     1.1440 os         1 AKM      -0.440000
     19 O4P          2.8780     2.5620     1.7100 o          1 AKM      -0.846500
     20 O6          -0.2730     3.7390    -1.4010 os         1 AKM      -0.567400
     21 C11         -1.6570     3.5980    -1.0320 c3         1 AKM       0.225600
     22 C10         -2.2100     2.2690    -1.6160 c5         1 AKM       0.167300
     23 C9          -3.7560     2.1070    -1.5150 c5         1 AKM       0.126300
     24 O3          -4.4780     2.9010    -2.4620 oh         1 AKM      -0.703000
     25 C8          -3.9030     0.5850    -1.8070 c5         1 AKM      -0.155400
     26 C7          -2.5460     0.0130    -1.2850 c5         1 AKM       0.348700
     27 O4          -1.7530     1.1310    -0.8630 os         1 AKM      -0.402000
     28 N11         -2.8350    -0.9550    -0.1930 n          1 AKM      -0.311000
     29 C21         -3.0890    -0.5070     1.1230 c          1 AKM       0.623000
     30 O21         -3.1990     0.6630     1.4510 o          1 AKM      -0.530000
     31 N31         -3.2530    -1.4820     2.0560 ns         1 AKM      -0.467500
     32 C41         -3.2300    -2.8270     1.8890 c          1 AKM       0.599200
     33 O41         -3.4040    -3.5800     2.8340 o          1 AKM      -0.565000
     34 C51         -2.9900    -3.2600     0.4960 cc         1 AKM      -0.297400
     35 C5A         -2.9700    -4.7510     0.2540 c3         1 AKM      -0.013900
     36 C61         -2.7970    -2.3170    -0.4890 cd         1 AKM       0.023600
     37 H2           3.5040     0.1150     1.3270 h2         1 AKM       0.013700
     38 H3           1.6100    -0.2320    -1.0760 hc         1 AKM       0.073700
     39 H4           2.7670     1.0770    -0.8780 hc         1 AKM       0.073700
     40 H5           5.2910     0.0400    -0.0440 hc         1 AKM       0.036033
     41 H6           5.9320    -0.8240    -1.4470 hc         1 AKM       0.036033
     42 H7           5.2140     0.7770    -1.6220 hc         1 AKM       0.036033
     43 H8           4.3970    -0.9110    -3.2740 hn         1 AKM       0.378000
     44 H9           2.9450    -1.5460    -3.0590 hn         1 AKM       0.378000
     45 H11          1.8780    -3.2910    -0.7910 ho         1 AKM       0.490000
     46 H12          4.6270    -3.9940    -0.9030 ho         1 AKM       0.490000
     47 H13          3.1130    -3.5260     0.8660 h1         1 AKM       0.032700
     48 H14          4.5190    -2.6400     2.5700 hc         1 AKM       0.041033
     49 H15          5.5530    -2.9130     1.1710 hc         1 AKM       0.041033
     50 H16          5.0670    -1.2740     1.6160 hc         1 AKM       0.041033
     51 H18         -1.7950     3.5960     0.0580 h1         1 AKM       0.030700
     52 H19         -2.2370     4.4350    -1.4430 h1         1 AKM       0.030700
     53 H20         -1.8750     2.1720    -2.6590 h1         1 AKM       0.071700
     54 H21         -4.0840     2.3360    -0.4900 h1         1 AKM       0.072700
     55 H22         -5.4330     2.6830    -2.3540 ho         1 AKM       0.487000
     56 H23         -4.7810     0.1530    -1.3120 hc         1 AKM       0.050700
     57 H24         -4.0070     0.3820    -2.8790 hc         1 AKM       0.050700
     58 H25         -2.0240    -0.5310    -2.0820 h2         1 AKM       0.044700
     59 H26         -3.4270    -1.1610     2.9940 hn         1 AKM       0.338500
     60 H27         -2.1700    -5.2340     0.8280 hc         1 AKM       0.037367
     61 H28         -3.9230    -5.2090     0.5460 hc         1 AKM       0.037367
     62 H29         -2.8040    -4.9820    -0.8060 hc         1 AKM       0.037367
     63 H30         -2.6080    -2.5530    -1.5340 h4         1 AKM       0.197000
@<TRIPOS>BOND
     1     1     2 1   
     2     2     3 1   
     3     2     4 1   
     4     2    20 1   
     5     4     5 1   
     6     5     6 1   
     7     5     7 1   
     8     5    19 1   
     9     7     8 1   
    10     8     9 1   
    11     8    18 1   
    12     8    37 1   
    13     9    10 1   
    14     9    38 1   
    15     9    39 1   
    16    10    11 1   
    17    10    12 1   
    18    10    13 1   
    19    11    40 1   
    20    11    41 1   
    21    11    42 1   
    22    12    43 1   
    23    12    44 1   
    24    13    14 1   
    25    13    15 1   
    26    13    16 1   
    27    14    45 1   
    28    15    46 1   
    29    16    17 1   
    30    16    18 1   
    31    16    47 1   
    32    17    48 1   
    33    17    49 1   
    34    17    50 1   
    35    20    21 1   
    36    21    22 1   
    37    21    51 1   
    38    21    52 1   
    39    22    23 1   
    40    22    27 1   
    41    22    53 1   
    42    23    24 1   
    43    23    25 1   
    44    23    54 1   
    45    24    55 1   
    46    25    26 1   
    47    25    56 1   
    48    25    57 1   
    49    26    27 1   
    50    26    28 1   
    51    26    58 1   
    52    28    29 1   
    53    28    36 1   
    54    29    30 2   
    55    29    31 1   
    56    31    32 1   
    57    31    59 1   
    58    32    33 2   
    59    32    34 1   
    60    34    35 1   
    61    34    36 2   
    62    35    60 1   
    63    35    61 1   
    64    35    62 1   
    65    36    63 1   
@<TRIPOS>SUBSTRUCTURE
     1 AKM         1 TEMP              0 ****  ****    0 ROOT
