@<TRIPOS>MOLECULE
AKN
   83    85     1     0     0
SMALL
No Charge or Current Charge


@<TRIPOS>ATOM
      1 C1           3.8160    -1.4050     1.2550 c6         1 AKN       0.366300
      2 C3           4.2050    -0.0980     2.0370 c6         1 AKN       0.115300
      3 C4           5.0490     0.8250     1.1120 c6         1 AKN       0.104300
      4 C5           6.2680     0.0480     0.5390 c6         1 AKN       0.150300
      5 C7           5.7680    -1.2320    -0.2040 c6         1 AKN       0.170300
      6 C9           6.9550    -2.1020    -0.7460 c3         1 AKN       0.156800
      7 O6           7.0230     0.9250    -0.3170 oh         1 AKN      -0.723000
      8 O2           2.8850    -1.1360     0.1870 os         1 AKN      -0.503000
      9 O8           4.9830    -2.0520     0.7060 os         1 AKN      -0.444000
     10 N10          6.5710    -3.3340    -1.4970 n8         1 AKN      -0.998200
     11 C11         -1.4050    -1.5020    -0.2400 c6         1 AKN       0.114700
     12 N12         -2.8420    -1.6460     0.0530 ns         1 AKN      -0.484900
     13 C13         -0.6110    -2.7390     0.2580 c6         1 AKN      -0.093400
     14 C14          0.8930    -2.6050    -0.0800 c6         1 AKN       0.153500
     15 N15          1.6270    -3.8100     0.3790 n8         1 AKN      -1.014200
     16 C16          1.4790    -1.2860     0.5210 c6         1 AKN       0.190300
     17 C17          0.6770    -0.0270     0.0700 c6         1 AKN       0.149300
     18 O18          1.2480     1.1590     0.6670 oh         1 AKN      -0.741000
     19 C19         -0.8440    -0.2030     0.4180 c6         1 AKN       0.134300
     20 O20         -1.6690     0.9160     0.0010 os         1 AKN      -0.485000
     21 C21         -1.6160     2.1150     0.8000 c6         1 AKN       0.367300
     22 C22         -3.0140     2.8370     0.8570 c6         1 AKN       0.100300
     23 O23         -4.0760     1.9820     1.3620 oh         1 AKN      -0.719000
     24 C24         -3.3690     3.3610    -0.5670 c6         1 AKN       0.160500
     25 N25         -4.6870     4.0710    -0.6190 n8         1 AKN      -0.970200
     26 C26         -2.2330     4.2730    -1.1060 c6         1 AKN       0.161300
     27 O27         -2.6140     4.7510    -2.4030 oh         1 AKN      -0.689000
     28 C28         -0.8980     3.4750    -1.1090 c6         1 AKN       0.122300
     29 O29         -0.6130     2.9920     0.2350 os         1 AKN      -0.462000
     30 C30          0.3160     4.3330    -1.5800 c3         1 AKN       0.169600
     31 O31          1.5650     3.6230    -1.4830 oh         1 AKN      -0.722000
     32 O32          3.0600     0.6320     2.5440 oh         1 AKN      -0.729000
     33 O33          5.4890     1.9920     1.8330 oh         1 AKN      -0.669000
     34 N37         -7.3350    -4.5270     2.2010 n8         1 AKN      -0.996200
     35 C35         -3.7310    -2.4340    -0.6470 c          1 AKN       0.565100
     36 O36         -3.3740    -3.1360    -1.5860 o          1 AKN      -0.609100
     37 C37         -5.2240    -2.3270    -0.2030 c3         1 AKN       0.095300
     38 C38         -5.6250    -3.5250     0.6940 c3         1 AKN      -0.110400
     39 C39         -7.0260    -3.3830     1.3230 c3         1 AKN       0.153800
     40 O40         -6.1140    -2.2630    -1.3430 oh         1 AKN      -0.642000
     41 H1           3.3550    -2.1060     1.9700 h2         1 AKN       0.088700
     42 H2           4.8440    -0.4100     2.8770 h1         1 AKN       0.087700
     43 H3           4.4110     1.1310     0.2680 h1         1 AKN       0.055700
     44 H4           6.8980    -0.2740     1.3820 h1         1 AKN       0.051700
     45 H5           5.1380    -0.9360    -1.0550 h1         1 AKN       0.058700
     46 H6           7.5630    -1.4750    -1.4140 h1         1 AKN       0.049200
     47 H7           7.5900    -2.3930     0.1030 h1         1 AKN       0.049200
     48 H8           6.9700     1.8040     0.1310 ho         1 AKN       0.524000
     49 H9           6.0300    -3.0660    -2.3280 hn         1 AKN       0.393500
     50 H10          7.4160    -3.7680    -1.8860 hn         1 AKN       0.393500
     51 H13         -3.2380    -1.0370     0.7610 hn         1 AKN       0.329500
     52 H14         -0.7460    -2.8590     1.3420 hc         1 AKN       0.068200
     53 H15         -1.0120    -3.6480    -0.2100 hc         1 AKN       0.068200
     54 H16          1.0050    -2.5600    -1.1740 h1         1 AKN       0.030700
     55 H17          1.3610    -4.6070    -0.2100 hn         1 AKN       0.419000
     56 H18          2.6210    -3.6730     0.1520 hn         1 AKN       0.419000
     57 H20          1.3760    -1.3500     1.6150 h1         1 AKN       0.061700
     58 H21          0.7600     0.0430    -1.0250 h1         1 AKN       0.060700
     59 H22          0.7050     1.9250     0.3210 ho         1 AKN       0.544000
     60 H23         -0.9430    -0.3130     1.5090 h1         1 AKN       0.049700
     61 H24         -1.3280     1.8570     1.8300 h2         1 AKN       0.074700
     62 H25         -2.9060     3.7080     1.5200 h1         1 AKN       0.042700
     63 H26         -3.9850     1.9450     2.3430 ho         1 AKN       0.508000
     64 H27         -3.4410     2.4840    -1.2320 h1         1 AKN       0.106700
     65 H28         -5.3840     3.4230    -0.2290 hn         1 AKN       0.397000
     66 H29         -4.6800     4.8260     0.0750 hn         1 AKN       0.397000
     67 H31         -2.1210     5.1280    -0.4220 h1         1 AKN       0.031700
     68 H32         -3.6010     4.8000    -2.3380 ho         1 AKN       0.504000
     69 H33         -0.9890     2.6160    -1.7900 h1         1 AKN       0.083700
     70 H34          0.1390     4.6420    -2.6190 h1         1 AKN       0.031200
     71 H35          0.3510     5.2440    -0.9670 h1         1 AKN       0.031200
     72 H36          2.2730     4.2480    -1.7650 ho         1 AKN       0.512000
     73 H37          2.4400     0.7900     1.7660 ho         1 AKN       0.538000
     74 H38          4.7460     2.2120     2.4420 ho         1 AKN       0.461000
     75 H39         -6.6830    -4.5260     2.9950 hn         1 AKN       0.391000
     76 H40         -8.2500    -4.3720     2.6420 hn         1 AKN       0.391000
     77 H42         -5.3180    -1.4080     0.3910 h1         1 AKN       0.080700
     78 H43         -5.5780    -4.4520     0.1080 hc         1 AKN       0.057200
     79 H44         -4.8850    -3.6210     1.4980 hc         1 AKN       0.057200
     80 H45         -7.7880    -3.3310     0.5330 h1         1 AKN       0.033700
     81 H46         -7.0760    -2.4580     1.9150 h1         1 AKN       0.033700
     82 H47         -5.7450    -2.8740    -2.0230 ho         1 AKN       0.464000
     83 H12         -1.2890    -1.4170    -1.3310 h1         1 AKN       0.072700
@<TRIPOS>BOND
     1     1     2 1   
     2     1     8 1   
     3     1     9 1   
     4     1    41 1   
     5     2     3 1   
     6     2    32 1   
     7     2    42 1   
     8     3     4 1   
     9     3    33 1   
    10     3    43 1   
    11     4     5 1   
    12     4     7 1   
    13     4    44 1   
    14     5     6 1   
    15     5     9 1   
    16     5    45 1   
    17     6    10 1   
    18     6    46 1   
    19     6    47 1   
    20     7    48 1   
    21     8    16 1   
    22    10    49 1   
    23    10    50 1   
    24    11    12 1   
    25    11    13 1   
    26    11    19 1   
    27    11    83 1   
    28    12    35 1   
    29    12    51 1   
    30    13    14 1   
    31    13    52 1   
    32    13    53 1   
    33    14    15 1   
    34    14    16 1   
    35    14    54 1   
    36    15    55 1   
    37    15    56 1   
    38    16    17 1   
    39    16    57 1   
    40    17    18 1   
    41    17    19 1   
    42    17    58 1   
    43    18    59 1   
    44    19    20 1   
    45    19    60 1   
    46    20    21 1   
    47    21    22 1   
    48    21    29 1   
    49    21    61 1   
    50    22    23 1   
    51    22    24 1   
    52    22    62 1   
    53    23    63 1   
    54    24    25 1   
    55    24    26 1   
    56    24    64 1   
    57    25    65 1   
    58    25    66 1   
    59    26    27 1   
    60    26    28 1   
    61    26    67 1   
    62    27    68 1   
    63    28    29 1   
    64    28    30 1   
    65    28    69 1   
    66    30    31 1   
    67    30    70 1   
    68    30    71 1   
    69    31    72 1   
    70    32    73 1   
    71    33    74 1   
    72    34    39 1   
    73    34    75 1   
    74    34    76 1   
    75    35    36 2   
    76    35    37 1   
    77    37    38 1   
    78    37    40 1   
    79    37    77 1   
    80    38    39 1   
    81    38    78 1   
    82    38    79 1   
    83    39    80 1   
    84    39    81 1   
    85    40    82 1   
@<TRIPOS>SUBSTRUCTURE
     1 AKN         1 TEMP              0 ****  ****    0 ROOT
