@<TRIPOS>MOLECULE
AKN
   83    85     1     0     0
SMALL
bcc


@<TRIPOS>ATOM
      1 C1           3.9080    -0.8010     1.4570 c6         1 AKN       0.319900
      2 C3           4.7280     0.4810     1.6140 c6         1 AKN       0.092100
      3 C4           5.5320     0.7460     0.3430 c6         1 AKN       0.081100
      4 C5           6.3650    -0.4820    -0.0110 c6         1 AKN       0.127100
      5 C7           5.4420    -1.6940    -0.1230 c6         1 AKN       0.147100
      6 C9           6.1650    -3.0000    -0.3990 c3         1 AKN       0.156800
      7 O6           7.0290    -0.3200    -1.2420 oh         1 AKN      -0.600800
      8 O2           2.9210    -0.5700     0.4960 os         1 AKN      -0.456600
      9 O8           4.7330    -1.8620     1.0960 os         1 AKN      -0.397600
     10 N10          5.2020    -4.0530    -0.6800 n8         1 AKN      -0.887800
     11 C11         -1.1490    -1.3060    -0.2290 c6         1 AKN       0.114700
     12 N12         -2.5750    -1.5150    -0.0670 ns         1 AKN      -0.551900
     13 C13         -0.3040    -2.4720     0.2700 c6         1 AKN      -0.093400
     14 C14          1.1820    -2.2100     0.0410 c6         1 AKN       0.153500
     15 N15          1.9440    -3.3340     0.5560 n8         1 AKN      -0.903800
     16 C16          1.5820    -0.9260     0.7650 c6         1 AKN       0.167100
     17 C17          0.7250     0.2620     0.3310 c6         1 AKN       0.126100
     18 O18          1.1350     1.3750     1.0930 oh         1 AKN      -0.618800
     19 C19         -0.7570    -0.0480     0.5380 c6         1 AKN       0.111100
     20 O20         -1.5840     0.9960     0.0790 os         1 AKN      -0.438600
     21 C21         -1.9470     2.0100     0.9640 c6         1 AKN       0.320900
     22 C22         -3.4330     2.3140     0.7860 c6         1 AKN       0.077100
     23 O23         -4.2080     1.1470     0.9500 oh         1 AKN      -0.596800
     24 C24         -3.7280     2.9280    -0.5870 c6         1 AKN       0.160500
     25 N25         -5.1120     3.3300    -0.7520 n8         1 AKN      -0.859800
     26 C26         -2.7970     4.1220    -0.8190 c6         1 AKN       0.138100
     27 O27         -2.9560     4.5640    -2.1450 oh         1 AKN      -0.566800
     28 C28         -1.3420     3.7110    -0.5670 c6         1 AKN       0.099100
     29 O29         -1.1980     3.1660     0.7380 os         1 AKN      -0.415600
     30 C30         -0.3500     4.8480    -0.6560 c3         1 AKN       0.146400
     31 O31          0.9420     4.2890    -0.5510 oh         1 AKN      -0.599800
     32 O32          3.9300     1.5780     1.9790 oh         1 AKN      -0.606800
     33 O33          6.4170     1.8310     0.5060 oh         1 AKN      -0.606800
     34 N37         -6.8510    -4.2030     2.0070 n8         1 AKN      -0.885800
     35 C35         -3.2900    -2.3320    -0.8520 c          1 AKN       0.632100
     36 O36         -2.8050    -3.0830    -1.6880 o          1 AKN      -0.609100
     37 C37         -4.7980    -2.3200    -0.5980 c3         1 AKN       0.072100
     38 C38         -5.1250    -3.2890     0.5390 c3         1 AKN      -0.110400
     39 C39         -6.6010    -3.2810     0.9100 c3         1 AKN       0.153800
     40 O40         -5.4900    -2.6140    -1.7800 oh         1 AKN      -0.579800
     41 H1           3.4570    -1.0810     2.4160 h2         1 AKN       0.088700
     42 H2           5.4360     0.3190     2.4350 h1         1 AKN       0.087700
     43 H3           4.8370     0.9370    -0.4890 h1         1 AKN       0.055700
     44 H4           7.0840    -0.6630     0.8050 h1         1 AKN       0.051700
     45 H5           4.7390    -1.5130    -0.9490 h1         1 AKN       0.058700
     46 H6           6.8870    -2.8380    -1.2070 h1         1 AKN       0.049200
     47 H7           6.7440    -3.2790     0.4860 h1         1 AKN       0.049200
     48 H8           7.5540     0.4860    -1.1950 ho         1 AKN       0.425000
     49 H9           4.8060    -3.9100    -1.6010 hn         1 AKN       0.338300
     50 H10          5.6790    -4.9450    -0.7220 hn         1 AKN       0.338300
     51 H13         -3.0870    -0.7900     0.4190 hn         1 AKN       0.329500
     52 H14         -0.4880    -2.6330     1.3370 hc         1 AKN       0.068200
     53 H15         -0.5960    -3.3860    -0.2490 hc         1 AKN       0.068200
     54 H16          1.3360    -2.0440    -1.0390 h1         1 AKN       0.030700
     55 H17          1.6100    -4.1840     0.1190 hn         1 AKN       0.363800
     56 H18          2.9240    -3.2670     0.3020 hn         1 AKN       0.363800
     57 H20          1.4450    -1.0910     1.8450 h1         1 AKN       0.061700
     58 H21          0.8920     0.4410    -0.7420 h1         1 AKN       0.060700
     59 H22          0.8050     2.1920     0.6970 ho         1 AKN       0.445000
     60 H23         -0.9320    -0.2200     1.6120 h1         1 AKN       0.049700
     61 H24         -1.7430     1.7140     2.0000 h2         1 AKN       0.074700
     62 H25         -3.6960     3.0610     1.5480 h1         1 AKN       0.042700
     63 H26         -4.4010     1.0320     1.8850 ho         1 AKN       0.409000
     64 H27         -3.5080     2.1760    -1.3550 h1         1 AKN       0.106700
     65 H28         -5.7100     2.5290    -0.5930 hn         1 AKN       0.341800
     66 H29         -5.3590     4.0030    -0.0340 hn         1 AKN       0.341800
     67 H31         -3.0680     4.9140    -0.1030 h1         1 AKN       0.031700
     68 H32         -2.8080     5.5120    -2.1810 ho         1 AKN       0.405000
     69 H33         -1.0700     2.9630    -1.3250 h1         1 AKN       0.083700
     70 H34         -0.4810     5.3690    -1.6110 h1         1 AKN       0.031200
     71 H35         -0.5480     5.5720     0.1440 h1         1 AKN       0.031200
     72 H36          1.5770     5.0010    -0.4340 ho         1 AKN       0.413000
     73 H37          3.0910     1.5400     1.4910 ho         1 AKN       0.439000
     74 H38          5.8940     2.6320     0.6120 ho         1 AKN       0.422000
     75 H39         -6.3970    -3.8580     2.8450 hn         1 AKN       0.335800
     76 H40         -7.8400    -4.2130     2.2190 hn         1 AKN       0.335800
     77 H42         -5.1110    -1.3120    -0.3030 h1         1 AKN       0.080700
     78 H43         -4.8190    -4.3030     0.2600 hc         1 AKN       0.057200
     79 H44         -4.5320    -3.0130     1.4170 hc         1 AKN       0.057200
     80 H45         -7.1930    -3.6030     0.0520 h1         1 AKN       0.033700
     81 H46         -6.9040    -2.2450     1.1270 h1         1 AKN       0.033700
     82 H47         -5.0920    -3.4040    -2.1660 ho         1 AKN       0.425000
     83 H12         -0.9340    -1.1470    -1.2940 h1         1 AKN       0.072700
@<TRIPOS>BOND
     1     1     2 1   
     2     1     8 1   
     3     1     9 1   
     4     1    41 1   
     5     2     3 1   
     6     2    32 1   
     7     2    42 1   
     8     3     4 1   
     9     3    33 1   
    10     3    43 1   
    11     4     5 1   
    12     4     7 1   
    13     4    44 1   
    14     5     6 1   
    15     5     9 1   
    16     5    45 1   
    17     6    10 1   
    18     6    46 1   
    19     6    47 1   
    20     7    48 1   
    21     8    16 1   
    22    10    49 1   
    23    10    50 1   
    24    11    12 1   
    25    11    13 1   
    26    11    19 1   
    27    11    83 1   
    28    12    35 1   
    29    12    51 1   
    30    13    14 1   
    31    13    52 1   
    32    13    53 1   
    33    14    15 1   
    34    14    16 1   
    35    14    54 1   
    36    15    55 1   
    37    15    56 1   
    38    16    17 1   
    39    16    57 1   
    40    17    18 1   
    41    17    19 1   
    42    17    58 1   
    43    18    59 1   
    44    19    20 1   
    45    19    60 1   
    46    20    21 1   
    47    21    22 1   
    48    21    29 1   
    49    21    61 1   
    50    22    23 1   
    51    22    24 1   
    52    22    62 1   
    53    23    63 1   
    54    24    25 1   
    55    24    26 1   
    56    24    64 1   
    57    25    65 1   
    58    25    66 1   
    59    26    27 1   
    60    26    28 1   
    61    26    67 1   
    62    27    68 1   
    63    28    29 1   
    64    28    30 1   
    65    28    69 1   
    66    30    31 1   
    67    30    70 1   
    68    30    71 1   
    69    31    72 1   
    70    32    73 1   
    71    33    74 1   
    72    34    39 1   
    73    34    75 1   
    74    34    76 1   
    75    35    36 2   
    76    35    37 1   
    77    37    38 1   
    78    37    40 1   
    79    37    77 1   
    80    38    39 1   
    81    38    78 1   
    82    38    79 1   
    83    39    80 1   
    84    39    81 1   
    85    40    82 1   
@<TRIPOS>SUBSTRUCTURE
     1 AKN         1 TEMP              0 ****  ****    0 ROOT
