@<TRIPOS>MOLECULE
AKO
   54    57     1     0     0
SMALL
No Charge or Current Charge


@<TRIPOS>ATOM
      1 C4          -1.9240     1.0800     0.6760 ca         1 AKO      -0.164000
      2 C14          1.6240    -1.7960     0.4390 c3         1 AKO       0.000800
      3 C5          -2.0310    -0.2870     0.3470 ca         1 AKO      -0.096300
      4 C6          -3.1660    -0.7430    -0.3640 ca         1 AKO      -0.056300
      5 C11         -1.7240     3.9060     1.3110 c3         1 AKO       0.144900
      6 C7          -0.9110    -1.2560     0.7790 c6         1 AKO       0.168000
      7 C8          -2.0160    -3.0100    -0.6100 c6         1 AKO       0.093000
      8 C9          -3.3380    -2.2270    -0.7010 c6         1 AKO      -0.048100
      9 C10         -6.2140     2.0780    -1.5160 c3         1 AKO       0.144900
     10 C13          0.4070    -0.9460     0.0100 c3         1 AKO      -0.088400
     11 N1          -1.3140    -2.6760     0.6490 n          1 AKO      -0.415800
     12 N2           4.7060    -1.3290    -1.6650 na         1 AKO      -0.224700
     13 C3          -2.9280     1.9970     0.2910 ca         1 AKO       0.112100
     14 C1          -4.1710     0.1650    -0.7430 ca         1 AKO      -0.172000
     15 C15          2.8940    -1.3830    -0.2570 cc         1 AKO      -0.141400
     16 C16          3.5600    -2.0630    -1.2730 cd         1 AKO      -0.154100
     17 C17          4.7230    -0.1980    -0.8710 ca         1 AKO      -0.042200
     18 C18          3.6590    -0.1920    -0.0150 ca         1 AKO      -0.100800
     19 C19          5.6630     0.8420    -0.8770 ca         1 AKO      -0.128000
     20 C2          -4.0580     1.5370    -0.4240 ca         1 AKO       0.120100
     21 C20          5.4890     1.9120     0.0300 ca         1 AKO      -0.057300
     22 C21          4.3860     1.9070     0.9190 ca         1 AKO      -0.141000
     23 C22          3.4560     0.8470     0.9040 ca         1 AKO      -0.061000
     24 C23          6.4880     3.0590     0.0590 c3         1 AKO      -0.045800
     25 O1          -5.0320     2.4540    -0.7880 os         1 AKO      -0.320100
     26 O2          -2.8400     3.3460     0.5970 os         1 AKO      -0.320100
     27 O3          -1.4960    -4.7630     1.6310 o          1 AKO      -0.606100
     28 H1          -1.0530     1.4130     1.2320 ha         1 AKO       0.118000
     29 H2           1.7600    -1.7100     1.5240 hc         1 AKO       0.044700
     30 H3           1.4220    -2.8540     0.2330 hc         1 AKO       0.044700
     31 H4          -1.8600     4.9880     1.4390 h1         1 AKO       0.040033
     32 H5          -1.6330     3.4560     2.3080 h1         1 AKO       0.040033
     33 H6          -0.7880     3.7440     0.7620 h1         1 AKO       0.040033
     34 H7          -0.7130    -1.0560     1.8430 h1         1 AKO       0.057700
     35 H8          -2.2170    -4.0880    -0.6780 h1         1 AKO       0.060700
     36 H9          -1.3750    -2.7440    -1.4620 h1         1 AKO       0.060700
     37 H10         -4.0640    -2.6660    -0.0050 hc         1 AKO       0.057700
     38 H11         -3.7620    -2.3440    -1.7080 hc         1 AKO       0.057700
     39 H12         -6.8430     2.9590    -1.6990 h1         1 AKO       0.040367
     40 H13         -5.9510     1.6410    -2.4880 h1         1 AKO       0.040367
     41 H14         -6.8070     1.3500    -0.9490 h1         1 AKO       0.040367
     42 H15         -0.6180    -3.1560     2.5730 h5         1 AKO       0.007200
     43 H16          0.6650     0.1100     0.1460 hc         1 AKO       0.055200
     44 H17          0.2500    -1.0780    -1.0670 hc         1 AKO       0.055200
     45 H18          5.3790    -1.5810    -2.3840 hn         1 AKO       0.350000
     46 H19         -5.0340    -0.2130    -1.2820 ha         1 AKO       0.119000
     47 H20          3.2990    -3.0070    -1.7450 h4         1 AKO       0.213000
     48 H21          6.5060     0.8230    -1.5640 ha         1 AKO       0.112000
     49 H22          4.2510     2.7260     1.6230 ha         1 AKO       0.108000
     50 H23          2.6090     0.8380     1.5860 ha         1 AKO       0.109000
     51 H24          6.0040     4.0030     0.3360 hc         1 AKO       0.040700
     52 H25          7.2840     2.8640     0.7870 hc         1 AKO       0.040700
     53 H26          6.9580     3.2050    -0.9210 hc         1 AKO       0.040700
     54 C12         -1.1290    -3.5950     1.6940 c          1 AKO       0.606900
@<TRIPOS>BOND
     1     1     3 ar  
     2     1    13 ar  
     3     1    28 1   
     4     2    10 1   
     5     2    15 1   
     6     2    29 1   
     7     2    30 1   
     8     3     4 ar  
     9     3     6 1   
    10     4     8 1   
    11     4    14 ar  
    12     5    26 1   
    13     5    31 1   
    14     5    32 1   
    15     5    33 1   
    16     6    10 1   
    17     6    11 1   
    18     6    34 1   
    19     7     8 1   
    20     7    11 1   
    21     7    35 1   
    22     7    36 1   
    23     8    37 1   
    24     8    38 1   
    25     9    25 1   
    26     9    39 1   
    27     9    40 1   
    28     9    41 1   
    29    10    43 1   
    30    10    44 1   
    31    11    54 1   
    32    12    16 1   
    33    12    17 1   
    34    12    45 1   
    35    13    20 ar  
    36    13    26 1   
    37    14    20 ar  
    38    14    46 1   
    39    15    16 2   
    40    15    18 1   
    41    16    47 1   
    42    17    18 ar  
    43    17    19 ar  
    44    18    23 ar  
    45    19    21 ar  
    46    19    48 1   
    47    20    25 1   
    48    21    22 ar  
    49    21    24 1   
    50    22    23 ar  
    51    22    49 1   
    52    23    50 1   
    53    24    51 1   
    54    24    52 1   
    55    24    53 1   
    56    27    54 2   
    57    42    54 1   
@<TRIPOS>SUBSTRUCTURE
     1 AKO         1 TEMP              0 ****  ****    0 ROOT
