@<TRIPOS>MOLECULE
AKO
   54    57     1     0     0
SMALL
abcg2


@<TRIPOS>ATOM
      1 C4          -1.9350     1.0580     0.6630 ca         1 AKO      -0.164000
      2 C14          1.5670    -1.7660     0.3990 c3         1 AKO       0.000800
      3 C5          -2.0340    -0.2990     0.3360 ca         1 AKO      -0.096300
      4 C6          -3.1430    -0.7570    -0.3540 ca         1 AKO      -0.056300
      5 C11         -1.7910     3.7970     1.2810 c3         1 AKO       0.144900
      6 C7          -0.9030    -1.2170     0.7400 c6         1 AKO       0.168000
      7 C8          -1.9920    -2.9630    -0.6030 c6         1 AKO       0.093000
      8 C9          -3.3090    -2.2140    -0.6950 c6         1 AKO      -0.048100
      9 C10         -6.1090     2.0300    -1.4370 c3         1 AKO       0.144900
     10 C13          0.3720    -0.9340    -0.0650 c3         1 AKO      -0.088400
     11 N1          -1.3130    -2.6040     0.6260 n          1 AKO      -0.415800
     12 N2           4.6150    -1.3020    -1.6330 na         1 AKO      -0.224700
     13 C3          -2.9210     1.9580     0.3100 ca         1 AKO       0.112100
     14 C1          -4.1440     0.1530    -0.7150 ca         1 AKO      -0.172000
     15 C15          2.8400    -1.3550    -0.2620 cc         1 AKO      -0.141400
     16 C16          3.5010    -2.0070    -1.2640 cd         1 AKO      -0.154100
     17 C17          4.7060    -0.1740    -0.8730 ca         1 AKO      -0.042200
     18 C18          3.6020    -0.1690     0.0040 ca         1 AKO      -0.100800
     19 C19          5.6620     0.8420    -0.8730 ca         1 AKO      -0.128000
     20 C2          -4.0500     1.4950    -0.4000 ca         1 AKO       0.120100
     21 C20          5.5160     1.8860     0.0240 ca         1 AKO      -0.057300
     22 C21          4.4140     1.8980     0.9060 ca         1 AKO      -0.141000
     23 C22          3.4670     0.8950     0.9040 ca         1 AKO      -0.061000
     24 C23          6.5260     2.9980     0.0810 c3         1 AKO      -0.045800
     25 O1          -4.9620     2.4330    -0.7180 os         1 AKO      -0.320100
     26 O2          -2.9070     3.2750     0.5900 os         1 AKO      -0.320100
     27 O3          -1.4880    -4.6390     1.6400 o          1 AKO      -0.606100
     28 H1          -1.0650     1.3960     1.2140 ha         1 AKO       0.118000
     29 H2           1.6670    -1.6720     1.4870 hc         1 AKO       0.044700
     30 H3           1.3830    -2.8240     0.2000 hc         1 AKO       0.044700
     31 H4          -1.9680     4.8640     1.3930 h1         1 AKO       0.040033
     32 H5          -1.6790     3.3540     2.2740 h1         1 AKO       0.040033
     33 H6          -0.8610     3.6510     0.7250 h1         1 AKO       0.040033
     34 H7          -0.6750    -1.0350     1.7960 h1         1 AKO       0.057700
     35 H8          -2.1480    -4.0390    -0.6250 h1         1 AKO       0.060700
     36 H9          -1.3510    -2.7110    -1.4510 h1         1 AKO       0.060700
     37 H10         -4.0350    -2.6700    -0.0150 hc         1 AKO       0.057700
     38 H11         -3.7180    -2.3250    -1.7010 hc         1 AKO       0.057700
     39 H12         -6.6990     2.9280    -1.6040 h1         1 AKO       0.040367
     40 H13         -5.8520     1.5920    -2.4050 h1         1 AKO       0.040367
     41 H14         -6.7120     1.3110    -0.8770 h1         1 AKO       0.040367
     42 H15         -0.6500    -3.0030     2.5030 h5         1 AKO       0.007200
     43 H16          0.6050     0.1290     0.0320 hc         1 AKO       0.055200
     44 H17          0.1920    -1.1050    -1.1300 hc         1 AKO       0.055200
     45 H18          5.2750    -1.5940    -2.3340 hn         1 AKO       0.350000
     46 H19         -5.0050    -0.2210    -1.2540 ha         1 AKO       0.119000
     47 H20          3.2580    -2.9400    -1.7480 h4         1 AKO       0.213000
     48 H21          6.5020     0.8160    -1.5580 ha         1 AKO       0.112000
     49 H22          4.3130     2.7220     1.6030 ha         1 AKO       0.108000
     50 H23          2.6330     0.9310     1.5950 ha         1 AKO       0.109000
     51 H24          6.0450     3.9770     0.0580 hc         1 AKO       0.040700
     52 H25          7.1120     2.9540     1.0020 hc         1 AKO       0.040700
     53 H26          7.2230     2.9480    -0.7540 hc         1 AKO       0.040700
     54 C12         -1.1480    -3.4680     1.6370 c          1 AKO       0.606900
@<TRIPOS>BOND
     1     1     3 ar  
     2     1    13 ar  
     3     1    28 1   
     4     2    10 1   
     5     2    15 1   
     6     2    29 1   
     7     2    30 1   
     8     3     4 ar  
     9     3     6 1   
    10     4     8 1   
    11     4    14 ar  
    12     5    26 1   
    13     5    31 1   
    14     5    32 1   
    15     5    33 1   
    16     6    10 1   
    17     6    11 1   
    18     6    34 1   
    19     7     8 1   
    20     7    11 1   
    21     7    35 1   
    22     7    36 1   
    23     8    37 1   
    24     8    38 1   
    25     9    25 1   
    26     9    39 1   
    27     9    40 1   
    28     9    41 1   
    29    10    43 1   
    30    10    44 1   
    31    11    54 1   
    32    12    16 1   
    33    12    17 1   
    34    12    45 1   
    35    13    20 ar  
    36    13    26 1   
    37    14    20 ar  
    38    14    46 1   
    39    15    16 2   
    40    15    18 1   
    41    16    47 1   
    42    17    18 ar  
    43    17    19 ar  
    44    18    23 ar  
    45    19    21 ar  
    46    19    48 1   
    47    20    25 1   
    48    21    22 ar  
    49    21    24 1   
    50    22    23 ar  
    51    22    49 1   
    52    23    50 1   
    53    24    51 1   
    54    24    52 1   
    55    24    53 1   
    56    27    54 2   
    57    42    54 1   
@<TRIPOS>SUBSTRUCTURE
     1 AKO         1 TEMP              0 ****  ****    0 ROOT
