@<TRIPOS>MOLECULE
AKP
  119   121     1     0     0
SMALL
No Charge or Current Charge


@<TRIPOS>ATOM
      1 C1          16.1190    20.7450   -13.5580 c3         1 AKP       0.114700
      2 C2          15.4060    20.4980   -14.9410 c3         1 AKP       0.282000
      3 O1          15.5460    21.6570   -15.7690 oh         1 AKP      -0.676500
      4 C3          15.6420    22.0420   -12.8320 c3         1 AKP      -0.046200
      5 C4          16.1600    22.1860   -11.4120 c2         1 AKP      -0.180200
      6 C5          15.4150    22.0680   -10.3020 c2         1 AKP      -0.342000
      7 N1          15.8000    18.0080   -15.0880 ns         1 AKP      -0.416900
      8 C6          16.1060    16.6770   -15.6750 c3         1 AKP      -0.044300
      9 C7          15.4260    15.5290   -14.8610 c          1 AKP       0.720000
     10 O2          15.3430    14.4230   -15.3800 o          1 AKP      -0.725000
     11 C8          17.6170    16.4060   -15.9430 c3         1 AKP       0.000900
     12 C9          18.5720    16.2640   -14.7490 ca         1 AKP      -0.188300
     13 O3          14.8990    15.8020   -13.7890 o          1 AKP      -0.725000
     14 C10         18.2520    16.6770   -13.4370 ca         1 AKP      -0.092000
     15 C11         15.9920    19.2320   -15.7030 c          1 AKP       0.536100
     16 O5          16.4990    19.3310   -16.8180 o          1 AKP      -0.675100
     17 C12         31.7660    21.5920    -8.1360 ca         1 AKP       0.284900
     18 N3          31.6360    22.9470    -8.0830 nb         1 AKP      -0.649000
     19 C13         30.4530    23.4410    -8.5540 ca         1 AKP       0.336900
     20 C14         29.4220    22.6070    -9.0680 ca         1 AKP       0.259500
     21 O9          27.9450    24.4630    -9.5500 o          1 AKP      -0.602100
     22 N4          27.1860    22.3740   -10.0550 ns         1 AKP      -0.467900
     23 C16         25.8680    22.7430   -10.6220 c3         1 AKP       0.021700
     24 O12         25.0410    20.6490    -9.6610 o          1 AKP      -0.583100
     25 C18         25.9100    22.7440   -12.1790 c3         1 AKP      -0.081400
     26 C19         26.7880    23.8390   -12.8450 c3         1 AKP      -0.062700
     27 N5          23.4860    22.2040   -10.2700 ns         1 AKP      -0.461900
     28 C20         22.2610    21.3970   -10.0610 c3         1 AKP       0.022700
     29 O13         21.2390    22.7100   -11.8410 o          1 AKP      -0.713100
     30 C22         21.5250    21.8110    -8.7450 c3         1 AKP      -0.052700
     31 C23         20.1260    21.1550    -8.6030 c3         1 AKP      -0.110100
     32 C24         22.3810    21.6140    -7.4590 c3         1 AKP      -0.063400
     33 N6          20.7630    20.4890   -11.8330 ns         1 AKP      -0.450900
     34 C25         19.9690    20.4670   -13.0810 c3         1 AKP       0.049700
     35 C26         18.4670    20.2280   -12.7560 c          1 AKP       0.581100
     36 O14         18.0750    19.6650   -11.7430 o          1 AKP      -0.546100
     37 C27         20.5200    19.4100   -14.0770 c3         1 AKP      -0.091400
     38 N7          17.5900    20.7410   -13.6910 ns         1 AKP      -0.505900
     39 C28         26.2590    25.2690   -12.5770 c3         1 AKP      -0.087600
     40 C29         26.9200    23.5860   -14.3640 c3         1 AKP      -0.087600
     41 C30         22.6910    20.1470    -7.0860 c3         1 AKP      -0.096100
     42 C31         21.6780    19.8650   -15.0200 c6         1 AKP      -0.031700
     43 C32         22.0010    18.7410   -16.0470 c6         1 AKP      -0.084900
     44 C33         22.9710    20.2790   -14.2550 c6         1 AKP      -0.084900
     45 C34         23.1390    19.1510   -17.0130 c6         1 AKP      -0.057400
     46 C35         24.1160    20.6750   -15.2200 c6         1 AKP      -0.057400
     47 C36         24.4150    19.5470   -16.2350 c6         1 AKP      -0.085400
     48 C37         30.7440    20.7490    -8.6470 ca         1 AKP       0.285900
     49 N2          29.5640    21.2390    -9.1170 nb         1 AKP      -0.630000
     50 C39         19.8430    15.7090   -14.9930 ca         1 AKP      -0.092000
     51 C38         19.1940    16.5510   -12.4020 ca         1 AKP      -0.224500
     52 C40         20.4690    16.0110   -12.6580 ca         1 AKP       0.273100
     53 C41         20.7790    15.5760   -13.9550 ca         1 AKP      -0.224500
     54 O6          21.4460    15.9120   -11.7020 os         1 AKP      -0.460500
     55 P1          21.5210    16.7030   -10.2990 p5         1 AKP       1.307900
     56 O8          21.3080    18.1590   -10.5350 o          1 AKP      -0.905500
     57 O10         22.8670    16.4820    -9.7000 o          1 AKP      -0.905500
     58 O7          20.4860    16.1770    -9.3620 o          1 AKP      -0.905500
     59 O15         13.9950    20.3610   -14.7460 oh         1 AKP      -0.676500
     60 H1          15.8350    19.9030   -12.9110 h1         1 AKP       0.150700
     61 HO1         15.8020    21.3010   -16.6510 ho         1 AKP       0.458000
     62 H31A        14.5460    22.0570   -12.8140 hc         1 AKP       0.040200
     63 H32         15.9450    22.9200   -13.4160 hc         1 AKP       0.040200
     64 H4          17.2250    22.4200   -11.3380 ha         1 AKP       0.182000
     65 H51         15.8500    22.1910    -9.3090 ha         1 AKP       0.147000
     66 H52         14.3480    21.8430   -10.3460 ha         1 AKP       0.147000
     67 HN1         15.3050    18.0130   -14.2020 hn         1 AKP       0.340500
     68 H6          15.6120    16.6640   -16.6550 h1         1 AKP       0.035700
     69 H81         18.0020    17.1930   -16.6010 hc         1 AKP       0.026200
     70 H82         17.6770    15.4890   -16.5420 hc         1 AKP       0.026200
     71 H10         17.2860    17.1080   -13.2000 ha         1 AKP       0.094500
     72 HN4         27.4270    21.3890    -9.9910 hn         1 AKP       0.341500
     73 H16         25.5790    23.7350   -10.2560 h1         1 AKP       0.076700
     74 H181        24.8880    22.8460   -12.5670 hc         1 AKP       0.068700
     75 H182        26.2580    21.7570   -12.5090 hc         1 AKP       0.068700
     76 H19         27.7980    23.7730   -12.4230 hc         1 AKP       0.037700
     77 HN5         23.3690    23.1250   -10.6790 hn         1 AKP       0.317500
     78 H20         22.5250    20.3330   -10.0190 h1         1 AKP       0.136700
     79 H22         21.3420    22.8910    -8.8210 hc         1 AKP       0.035700
     80 H231        20.1940    20.0610    -8.6490 hc         1 AKP       0.062033
     81 H232        19.6660    21.4280    -7.6460 hc         1 AKP       0.062033
     82 H233        19.4480    21.4870    -9.3980 hc         1 AKP       0.062033
     83 H241        21.8590    22.0790    -6.6150 hc         1 AKP       0.011200
     84 H242        23.3270    22.1590    -7.5600 hc         1 AKP       0.011200
     85 HN6         20.9130    19.6030   -11.3260 hn         1 AKP       0.444500
     86 H25         20.0250    21.4480   -13.5680 h1         1 AKP       0.040700
     87 H271        19.6850    19.0780   -14.7070 hc         1 AKP       0.079700
     88 H272        20.8300    18.5250   -13.5140 hc         1 AKP       0.079700
     89 HN7         17.9950    21.2160   -14.4900 hn         1 AKP       0.297500
     90 H281        26.2490    25.4990   -11.5060 hc         1 AKP       0.029033
     91 H282        26.8960    26.0140   -13.0680 hc         1 AKP       0.029033
     92 H283        25.2390    25.3860   -12.9630 hc         1 AKP       0.029033
     93 H291        25.9400    23.6350   -14.8550 hc         1 AKP       0.029033
     94 H292        27.5740    24.3340   -14.8270 hc         1 AKP       0.029033
     95 H293        27.3510    22.5960   -14.5570 hc         1 AKP       0.029033
     96 H301        23.2060    19.6270    -7.9000 hc         1 AKP       0.038700
     97 H302        23.3370    20.1120    -6.2010 hc         1 AKP       0.038700
     98 H303        21.7720    19.5970    -6.8510 hc         1 AKP       0.038700
     99 H31         21.3040    20.7390   -15.5720 hc         1 AKP      -0.004300
    100 H321        21.1020    18.4930   -16.6280 hc         1 AKP       0.067950
    101 H322        22.2860    17.8220   -15.5160 hc         1 AKP       0.067950
    102 H331        23.3020    19.4570   -13.6040 hc         1 AKP       0.067950
    103 H332        22.7670    21.1350   -13.6020 hc         1 AKP       0.067950
    104 H341        22.8090    19.9920   -17.6390 hc         1 AKP       0.006700
    105 H342        23.3620    18.3210   -17.6970 hc         1 AKP       0.006700
    106 H351        25.0230    20.9070   -14.6460 hc         1 AKP       0.006700
    107 H352        23.8440    21.5930   -15.7580 hc         1 AKP       0.006700
    108 H361        25.1940    19.8740   -16.9370 hc         1 AKP       0.046700
    109 H362        24.8160    18.6700   -15.7080 hc         1 AKP       0.046700
    110 H37         30.8750    19.6680    -8.6770 h4         1 AKP       0.026100
    111 H39         20.1130    15.3860   -15.9970 ha         1 AKP       0.094500
    112 H38         18.9240    16.8920   -11.4080 ha         1 AKP       0.127500
    113 H41         21.7610    15.1580   -14.1600 ha         1 AKP       0.127500
    114 H15         13.6220    20.0290   -15.5910 ho         1 AKP       0.458000
    115 H12         32.7000    21.1740    -7.7660 h4         1 AKP       0.018100
    116 C21         21.3720    21.6080   -11.3170 c          1 AKP       0.579100
    117 C17         24.7800    21.7520   -10.1230 c          1 AKP       0.575100
    118 C15         28.1390    23.2530    -9.5710 c          1 AKP       0.507600
    119 H13         30.3350    24.5230    -8.5180 h4         1 AKP       0.056100
@<TRIPOS>BOND
     1     1     2 1   
     2     1     4 1   
     3     1    38 1   
     4     1    60 1   
     5     2     3 1   
     6     2    15 1   
     7     2    59 1   
     8     3    61 1   
     9     4     5 1   
    10     4    62 1   
    11     4    63 1   
    12     5     6 2   
    13     5    64 1   
    14     6    65 1   
    15     6    66 1   
    16     7     8 1   
    17     7    15 1   
    18     7    67 1   
    19     8     9 1   
    20     8    11 1   
    21     8    68 1   
    22     9    10 1   
    23     9    13 1   
    24    11    12 1   
    25    11    69 1   
    26    11    70 1   
    27    12    14 ar  
    28    12    50 ar  
    29    14    51 ar  
    30    14    71 1   
    31    15    16 2   
    32    17    18 ar  
    33    17    48 ar  
    34    17   115 1   
    35    18    19 ar  
    36    19    20 ar  
    37    19   119 1   
    38    20    49 ar  
    39    20   118 1   
    40    21   118 2   
    41    22    23 1   
    42    22    72 1   
    43    22   118 1   
    44    23    25 1   
    45    23    73 1   
    46    23   117 1   
    47    24   117 2   
    48    25    26 1   
    49    25    74 1   
    50    25    75 1   
    51    26    39 1   
    52    26    40 1   
    53    26    76 1   
    54    27    28 1   
    55    27    77 1   
    56    27   117 1   
    57    28    30 1   
    58    28    78 1   
    59    28   116 1   
    60    29   116 2   
    61    30    31 1   
    62    30    32 1   
    63    30    79 1   
    64    31    80 1   
    65    31    81 1   
    66    31    82 1   
    67    32    41 1   
    68    32    83 1   
    69    32    84 1   
    70    33    34 1   
    71    33    85 1   
    72    33   116 1   
    73    34    35 1   
    74    34    37 1   
    75    34    86 1   
    76    35    36 2   
    77    35    38 1   
    78    37    42 1   
    79    37    87 1   
    80    37    88 1   
    81    38    89 1   
    82    39    90 1   
    83    39    91 1   
    84    39    92 1   
    85    40    93 1   
    86    40    94 1   
    87    40    95 1   
    88    41    96 1   
    89    41    97 1   
    90    41    98 1   
    91    42    43 1   
    92    42    44 1   
    93    42    99 1   
    94    43    45 1   
    95    43   100 1   
    96    43   101 1   
    97    44    46 1   
    98    44   102 1   
    99    44   103 1   
   100    45    47 1   
   101    45   104 1   
   102    45   105 1   
   103    46    47 1   
   104    46   106 1   
   105    46   107 1   
   106    47   108 1   
   107    47   109 1   
   108    48    49 ar  
   109    48   110 1   
   110    50    53 ar  
   111    50   111 1   
   112    51    52 ar  
   113    51   112 1   
   114    52    53 ar  
   115    52    54 1   
   116    53   113 1   
   117    54    55 1   
   118    55    56 1   
   119    55    57 1   
   120    55    58 1   
   121    59   114 1   
@<TRIPOS>SUBSTRUCTURE
     1 AKP         1 TEMP              0 ****  ****    0 ROOT
