@<TRIPOS>MOLECULE
AKP
  119   121     1     0     0
SMALL
abcg2


@<TRIPOS>ATOM
      1 C1          16.7250    20.9620   -13.6820 c3         1 AKP       0.114700
      2 C2          15.9820    20.3360   -14.9330 c3         1 AKP       0.282000
      3 O1          16.9430    19.7160   -15.7290 oh         1 AKP      -0.676500
      4 C3          16.0790    22.2770   -13.2500 c3         1 AKP      -0.046200
      5 C4          16.6610    22.7910   -11.9780 c2         1 AKP      -0.180200
      6 C5          15.9610    23.0430   -10.8780 c2         1 AKP      -0.342000
      7 N1          15.4900    18.1290   -14.1210 ns         1 AKP      -0.416900
      8 C6          14.8300    17.1500   -13.2840 c3         1 AKP      -0.044300
      9 C7          14.7310    17.5980   -11.7970 c          1 AKP       0.720000
     10 O2          14.1570    16.7710   -11.0600 o          1 AKP      -0.725000
     11 C8          15.5000    15.7800   -13.4470 c3         1 AKP       0.000900
     12 C9          17.0140    15.7890   -13.5390 ca         1 AKP      -0.188300
     13 O3          15.2380    18.6830   -11.4690 o          1 AKP      -0.725000
     14 C10         17.8230    16.6420   -12.7730 ca         1 AKP      -0.092000
     15 C11         14.9760    19.3170   -14.4040 c          1 AKP       0.536100
     16 O5          13.7970    19.6360   -14.2710 o          1 AKP      -0.675100
     17 C12         28.9070    23.0940    -5.6480 ca         1 AKP       0.284900
     18 N3          27.7720    23.7290    -5.3970 nb         1 AKP      -0.649000
     19 C13         26.9020    23.8280    -6.3960 ca         1 AKP       0.336900
     20 C14         27.1790    23.2910    -7.6510 ca         1 AKP       0.259500
     21 O9          25.1680    24.0970    -8.6580 o          1 AKP      -0.602100
     22 N4          26.6420    22.9620    -9.9440 ns         1 AKP      -0.467900
     23 C16         25.9060    23.0580   -11.1880 c3         1 AKP       0.021700
     24 O12         25.4350    20.7790   -11.8600 o          1 AKP      -0.583100
     25 C18         26.8380    23.2370   -12.3800 c3         1 AKP      -0.081400
     26 C19         27.7510    24.4680   -12.2860 c3         1 AKP      -0.062700
     27 N5          23.8250    21.9440   -10.8270 ns         1 AKP      -0.461900
     28 C20         22.8250    20.8980   -10.7530 c3         1 AKP       0.022700
     29 O13         21.1980    22.3830   -11.7040 o          1 AKP      -0.713100
     30 C22         22.2830    20.7080    -9.3330 c3         1 AKP      -0.052700
     31 C23         21.2490    19.5870    -9.3000 c3         1 AKP      -0.110100
     32 C24         23.4090    20.4420    -8.3230 c3         1 AKP      -0.063400
     33 N6          21.4220    20.3330   -12.6150 ns         1 AKP      -0.450900
     34 C25         20.4860    20.5780   -13.6740 c3         1 AKP       0.049700
     35 C26         19.0690    20.4970   -13.1400 c          1 AKP       0.581100
     36 O14         18.7840    19.9300   -12.1020 o          1 AKP      -0.546100
     37 C27         20.6850    19.5680   -14.8040 c3         1 AKP      -0.091400
     38 N7          18.1400    21.1250   -13.9010 ns         1 AKP      -0.505900
     39 C28         26.9610    25.7670   -12.1540 c3         1 AKP      -0.087600
     40 C29         28.6630    24.5190   -13.4930 c3         1 AKP      -0.087600
     41 C30         24.2210    19.1770    -8.5730 c3         1 AKP      -0.096100
     42 C31         21.9130    19.7840   -15.6900 c6         1 AKP      -0.031700
     43 C32         21.9540    18.6440   -16.7120 c6         1 AKP      -0.084900
     44 C33         23.2470    19.8690   -14.9320 c6         1 AKP      -0.084900
     45 C34         23.1750    18.6950   -17.6380 c6         1 AKP      -0.057400
     46 C35         24.4480    19.9170   -15.8680 c6         1 AKP      -0.057400
     47 C36         24.4600    18.7200   -16.8230 c6         1 AKP      -0.085400
     48 C37         29.1830    22.5620    -6.9040 ca         1 AKP       0.285900
     49 N2          28.3230    22.6700    -7.8940 nb         1 AKP      -0.630000
     50 C39         17.6580    14.9290   -14.4230 ca         1 AKP      -0.092000
     51 C38         19.2240    16.6570   -12.8950 ca         1 AKP      -0.224500
     52 C40         19.8580    15.7680   -13.7920 ca         1 AKP       0.273100
     53 C41         19.0610    14.9040   -14.5370 ca         1 AKP      -0.224500
     54 O6          21.1730    15.7510   -14.0130 os         1 AKP      -0.460500
     55 P1          22.3940    16.2410   -12.8540 p5         1 AKP       1.307900
     56 O8          22.0670    17.6590   -12.3950 o          1 AKP      -0.905500
     57 O10         23.6260    16.0800   -13.7230 o          1 AKP      -0.905500
     58 O7          22.2260    15.2170   -11.7390 o          1 AKP      -0.905500
     59 O15         15.3010    21.2850   -15.6860 oh         1 AKP      -0.676500
     60 H1          16.6170    20.2680   -12.8460 h1         1 AKP       0.150700
     61 HO1         16.5040    19.2620   -16.4570 ho         1 AKP       0.458000
     62 H31A        15.0040    22.1290   -13.1250 hc         1 AKP       0.040200
     63 H32         16.2040    23.0240   -14.0420 hc         1 AKP       0.040200
     64 H4          17.7330    22.9780   -11.9750 ha         1 AKP       0.182000
     65 H51         16.4300    23.4280    -9.9830 ha         1 AKP       0.147000
     66 H52         14.8910    22.8730   -10.8310 ha         1 AKP       0.147000
     67 HN1         16.4910    18.0320   -14.2220 hn         1 AKP       0.340500
     68 H6          13.8000    17.0410   -13.6340 h1         1 AKP       0.035700
     69 H81         15.1110    15.2980   -14.3480 hc         1 AKP       0.026200
     70 H82         15.1640    15.1630   -12.6120 hc         1 AKP       0.026200
     71 H10         17.3560    17.3550   -12.1080 ha         1 AKP       0.094500
     72 HN4         27.5110    22.4460    -9.9250 hn         1 AKP       0.341500
     73 H16         25.2620    23.9360   -11.1290 h1         1 AKP       0.076700
     74 H181        26.2310    23.3100   -13.2910 hc         1 AKP       0.068700
     75 H182        27.4550    22.3410   -12.5080 hc         1 AKP       0.068700
     76 H19         28.3840    24.3600   -11.3980 hc         1 AKP       0.037700
     77 HN5         23.5490    22.8610   -10.5090 hn         1 AKP       0.317500
     78 H20         23.2910    19.9650   -11.0710 h1         1 AKP       0.136700
     79 H22         21.7950    21.6420    -9.0310 hc         1 AKP       0.035700
     80 H231        21.6280    18.6710    -9.7560 hc         1 AKP       0.062033
     81 H232        20.9520    19.3670    -8.2740 hc         1 AKP       0.062033
     82 H233        20.3550    19.8600    -9.8610 hc         1 AKP       0.062033
     83 H241        22.9570    20.3900    -7.3290 hc         1 AKP       0.011200
     84 H242        24.0840    21.3010    -8.3010 hc         1 AKP       0.011200
     85 HN6         21.7800    19.3730   -12.4690 hn         1 AKP       0.444500
     86 H25         20.6350    21.5910   -14.0670 h1         1 AKP       0.040700
     87 H271        19.7860    19.6030   -15.4260 hc         1 AKP       0.079700
     88 H272        20.7220    18.5660   -14.3740 hc         1 AKP       0.079700
     89 HN7         18.4480    21.5620   -14.7560 hn         1 AKP       0.297500
     90 H281        26.3660    25.8030   -11.2400 hc         1 AKP       0.029033
     91 H282        27.6290    26.6290   -12.1360 hc         1 AKP       0.029033
     92 H283        26.2770    25.8970   -12.9970 hc         1 AKP       0.029033
     93 H291        28.0890    24.6340   -14.4160 hc         1 AKP       0.029033
     94 H292        29.3540    25.3600   -13.4280 hc         1 AKP       0.029033
     95 H293        29.2570    23.6070   -13.5840 hc         1 AKP       0.029033
     96 H301        24.7560    19.2120    -9.5230 hc         1 AKP       0.038700
     97 H302        24.9680    19.0450    -7.7890 hc         1 AKP       0.038700
     98 H303        23.5960    18.2840    -8.5810 hc         1 AKP       0.038700
     99 H31         21.7800    20.7290   -16.2370 hc         1 AKP      -0.004300
    100 H321        21.0310    18.6500   -17.3000 hc         1 AKP       0.067950
    101 H322        21.9650    17.6980   -16.1600 hc         1 AKP       0.067950
    102 H331        23.3480    18.9980   -14.2800 hc         1 AKP       0.067950
    103 H332        23.2600    20.7450   -14.2800 hc         1 AKP       0.067950
    104 H341        23.1250    19.5870   -18.2700 hc         1 AKP       0.006700
    105 H342        23.1660    17.8370   -18.3160 hc         1 AKP       0.006700
    106 H351        25.3690    19.9440   -15.2780 hc         1 AKP       0.006700
    107 H352        24.4330    20.8450   -16.4540 hc         1 AKP       0.006700
    108 H361        25.3370    18.7540   -17.4750 hc         1 AKP       0.046700
    109 H362        24.5290    17.7980   -16.2330 hc         1 AKP       0.046700
    110 H37         30.1100    22.0350    -7.0970 h4         1 AKP       0.026100
    111 H39         17.0830    14.2570   -15.0500 ha         1 AKP       0.094500
    112 H38         19.8400    17.3630   -12.3580 ha         1 AKP       0.127500
    113 H41         19.5380    14.2320   -15.2410 ha         1 AKP       0.127500
    114 H15         14.3590    21.1960   -15.4740 ho         1 AKP       0.458000
    115 H12         29.6190    22.9970    -4.8390 h4         1 AKP       0.018100
    116 C21         21.7090    21.2630   -11.7290 c          1 AKP       0.579100
    117 C17         25.0320    21.8020   -11.3350 c          1 AKP       0.575100
    118 C15         26.2170    23.4820    -8.7850 c          1 AKP       0.507600
    119 H13         25.9780    24.3590    -6.2070 h4         1 AKP       0.056100
@<TRIPOS>BOND
     1     1     2 1   
     2     1     4 1   
     3     1    38 1   
     4     1    60 1   
     5     2     3 1   
     6     2    15 1   
     7     2    59 1   
     8     3    61 1   
     9     4     5 1   
    10     4    62 1   
    11     4    63 1   
    12     5     6 2   
    13     5    64 1   
    14     6    65 1   
    15     6    66 1   
    16     7     8 1   
    17     7    15 1   
    18     7    67 1   
    19     8     9 1   
    20     8    11 1   
    21     8    68 1   
    22     9    10 1   
    23     9    13 1   
    24    11    12 1   
    25    11    69 1   
    26    11    70 1   
    27    12    14 ar  
    28    12    50 ar  
    29    14    51 ar  
    30    14    71 1   
    31    15    16 2   
    32    17    18 ar  
    33    17    48 ar  
    34    17   115 1   
    35    18    19 ar  
    36    19    20 ar  
    37    19   119 1   
    38    20    49 ar  
    39    20   118 1   
    40    21   118 2   
    41    22    23 1   
    42    22    72 1   
    43    22   118 1   
    44    23    25 1   
    45    23    73 1   
    46    23   117 1   
    47    24   117 2   
    48    25    26 1   
    49    25    74 1   
    50    25    75 1   
    51    26    39 1   
    52    26    40 1   
    53    26    76 1   
    54    27    28 1   
    55    27    77 1   
    56    27   117 1   
    57    28    30 1   
    58    28    78 1   
    59    28   116 1   
    60    29   116 2   
    61    30    31 1   
    62    30    32 1   
    63    30    79 1   
    64    31    80 1   
    65    31    81 1   
    66    31    82 1   
    67    32    41 1   
    68    32    83 1   
    69    32    84 1   
    70    33    34 1   
    71    33    85 1   
    72    33   116 1   
    73    34    35 1   
    74    34    37 1   
    75    34    86 1   
    76    35    36 2   
    77    35    38 1   
    78    37    42 1   
    79    37    87 1   
    80    37    88 1   
    81    38    89 1   
    82    39    90 1   
    83    39    91 1   
    84    39    92 1   
    85    40    93 1   
    86    40    94 1   
    87    40    95 1   
    88    41    96 1   
    89    41    97 1   
    90    41    98 1   
    91    42    43 1   
    92    42    44 1   
    93    42    99 1   
    94    43    45 1   
    95    43   100 1   
    96    43   101 1   
    97    44    46 1   
    98    44   102 1   
    99    44   103 1   
   100    45    47 1   
   101    45   104 1   
   102    45   105 1   
   103    46    47 1   
   104    46   106 1   
   105    46   107 1   
   106    47   108 1   
   107    47   109 1   
   108    48    49 ar  
   109    48   110 1   
   110    50    53 ar  
   111    50   111 1   
   112    51    52 ar  
   113    51   112 1   
   114    52    53 ar  
   115    52    54 1   
   116    53   113 1   
   117    54    55 1   
   118    55    56 1   
   119    55    57 1   
   120    55    58 1   
   121    59   114 1   
@<TRIPOS>SUBSTRUCTURE
     1 AKP         1 TEMP              0 ****  ****    0 ROOT
