@<TRIPOS>MOLECULE
AKQ
   43    45     1     0     0
SMALL
No Charge or Current Charge


@<TRIPOS>ATOM
      1 C10         13.8600     5.6830     8.2650 c6         1 AKQ       0.299800
      2 N12         14.5790     5.0110     7.1650 nu         1 AKQ      -0.923100
      3 C20         14.4750     2.5680     4.6120 ca         1 AKQ       0.169400
      4 C24         14.3590     3.6020     9.7290 ca         1 AKQ      -0.054000
      5 C26         14.4870     2.9850    10.9950 ca         1 AKQ      -0.164600
      6 C05         13.7040     7.9040     9.5320 c6         1 AKQ       0.120700
      7 C07         14.4580     7.0930     8.4380 c6         1 AKQ      -0.105400
      8 C14         14.0660     4.0300     6.3280 ca         1 AKQ       0.384900
      9 N15         12.7750     3.6730     6.4810 nb         1 AKQ      -0.239500
     10 C16         12.3140     2.7120     5.6540 ca         1 AKQ       0.169400
     11 C18         13.1440     2.1200     4.6860 ca         1 AKQ      -0.071000
     12 Cl19        12.5410     0.8660     3.6080 cl         1 AKQ      -0.170000
     13 N22         14.9400     3.5280     5.4380 nb         1 AKQ      -0.239500
     14 C23         13.9820     4.9600     9.6180 ca         1 AKQ      -0.130300
     15 C27         14.2210     3.7540    12.1470 ca         1 AKQ      -0.042000
     16 C29         13.8350     5.0990    12.0370 ca         1 AKQ      -0.141000
     17 C31         13.7450     5.7250    10.7800 ca         1 AKQ      -0.008000
     18 N32         13.1520     7.0370    10.6210 n          1 AKQ      -0.248400
     19 C33         11.9850     7.4860    11.3070 c          1 AKQ       0.613100
     20 C34         11.1200     6.4910    12.0890 c3         1 AKQ      -0.175100
     21 O38         11.6090     8.6500    11.2210 o          1 AKQ      -0.588100
     22 C39         14.8930     1.5360    11.1460 c          1 AKQ       0.618700
     23 N40         15.1490     0.8200    10.0290 nt         1 AKQ      -0.602000
     24 O43         14.9980     0.9910    12.2320 o          1 AKQ      -0.601100
     25 H1          12.7910     5.8000     8.0200 h1         1 AKQ       0.101700
     26 H2          15.5650     5.2310     7.0260 hn         1 AKQ       0.508000
     27 H4          14.5520     3.0290     8.8280 ha         1 AKQ       0.119000
     28 H8          12.8570     8.4000     9.0340 h1         1 AKQ       0.081700
     29 H9          15.5180     6.9940     8.7110 hc         1 AKQ       0.057200
     30 H10         14.4290     7.6440     7.4880 hc         1 AKQ       0.057200
     31 H11         11.2730     2.4170     5.7700 h4         1 AKQ       0.036600
     32 H12         14.3050     3.3080    13.1360 ha         1 AKQ       0.140000
     33 H13         13.6420     5.6610    12.9460 ha         1 AKQ       0.127000
     34 H14         10.0870     6.8430    12.1820 hc         1 AKQ       0.067033
     35 H15         11.1720     5.4910    11.6450 hc         1 AKQ       0.067033
     36 H16         11.5390     6.3750    13.0940 hc         1 AKQ       0.067033
     37 H17         15.4210    -0.1470    10.1180 hn         1 AKQ       0.313500
     38 H18         15.0720     1.2490     9.1210 hn         1 AKQ       0.313500
     39 C01         14.6370     9.0110    10.0920 c3         1 AKQ      -0.105100
     40 H3          15.1760     2.1570     3.8880 h4         1 AKQ       0.036600
     41 H5          14.1080     9.6600    10.8000 hc         1 AKQ       0.046700
     42 H6          15.4960     8.5780    10.6190 hc         1 AKQ       0.046700
     43 H7          15.0220     9.6490     9.2870 hc         1 AKQ       0.046700
@<TRIPOS>BOND
     1     1     2 1   
     2     1     7 1   
     3     1    14 1   
     4     1    25 1   
     5     2     8 1   
     6     2    26 1   
     7     3    11 ar  
     8     3    13 ar  
     9     3    40 1   
    10     4     5 ar  
    11     4    14 ar  
    12     4    27 1   
    13     5    15 ar  
    14     5    22 1   
    15     6     7 1   
    16     6    18 1   
    17     6    28 1   
    18     6    39 1   
    19     7    29 1   
    20     7    30 1   
    21     8     9 ar  
    22     8    13 ar  
    23     9    10 ar  
    24    10    11 ar  
    25    10    31 1   
    26    11    12 1   
    27    14    17 ar  
    28    15    16 ar  
    29    15    32 1   
    30    16    17 ar  
    31    16    33 1   
    32    17    18 1   
    33    18    19 1   
    34    19    20 1   
    35    19    21 2   
    36    20    34 1   
    37    20    35 1   
    38    20    36 1   
    39    22    23 1   
    40    22    24 2   
    41    23    37 1   
    42    23    38 1   
    43    39    41 1   
    44    39    42 1   
    45    39    43 1   
@<TRIPOS>SUBSTRUCTURE
     1 AKQ         1 TEMP              0 ****  ****    0 ROOT
