@<TRIPOS>MOLECULE
AKQ
   43    45     1     0     0
SMALL
bcc


@<TRIPOS>ATOM
      1 C10         13.9020     5.6100     8.2530 c6         1 AKQ       0.299800
      2 N12         14.5220     4.9090     7.1640 nu         1 AKQ      -0.867900
      3 C20         13.9960     2.6390     4.5790 ca         1 AKQ       0.497700
      4 C24         14.5110     3.6270     9.7570 ca         1 AKQ      -0.072000
      5 C26         14.6120     3.0730    11.0330 ca         1 AKQ      -0.164600
      6 C05         13.8480     7.7870     9.5510 c6         1 AKQ       0.120700
      7 C07         14.5720     6.9660     8.4730 c6         1 AKQ      -0.105400
      8 C14         13.8860     4.0340     6.3620 ca         1 AKQ       0.910900
      9 N15         12.5950     3.7860     6.5960 nb         1 AKQ      -0.765500
     10 C16         11.9860     2.9450     5.7800 ca         1 AKQ       0.497700
     11 C18         12.6510     2.3330     4.7310 ca         1 AKQ      -0.293200
     12 CL19        11.8500     1.2350     3.6720 cl         1 AKQ      -0.078400
     13 N22         14.6140     3.4810     5.3810 nb         1 AKQ      -0.765500
     14 C23         13.9820     4.8920     9.5760 ca         1 AKQ      -0.130300
     15 C27         14.1840     3.8160    12.1290 ca         1 AKQ      -0.060000
     16 C29         13.6830     5.0950    11.9620 ca         1 AKQ      -0.159000
     17 C31         13.5540     5.6250    10.6840 ca         1 AKQ       0.084600
     18 N32         13.0520     6.9140    10.4330 n          1 AKQ      -0.408000
     19 C33         11.8760     7.3940    10.9410 c          1 AKQ       0.680100
     20 C34         10.9540     6.4290    11.6450 c3         1 AKQ      -0.175100
     21 O38         11.5630     8.5640    10.7960 o          1 AKQ      -0.588100
     22 C39         15.1540     1.7010    11.2790 c          1 AKQ       0.685700
     23 N40         15.9850     1.2100    10.3430 nt         1 AKQ      -0.669000
     24 O43         14.8460     1.0730    12.2820 o          1 AKQ      -0.601100
     25 H1          12.8500     5.7710     7.9970 h1         1 AKQ       0.101700
     26 H2          15.5100     5.0360     7.0050 hn         1 AKQ       0.452800
     27 H4          14.8270     3.0680     8.8860 ha         1 AKQ       0.137000
     28 H8          13.1330     8.4390     9.0520 h1         1 AKQ       0.081700
     29 H9          15.6130     6.7930     8.7630 hc         1 AKQ       0.057200
     30 H10         14.5870     7.5400     7.5460 hc         1 AKQ       0.057200
     31 H11         10.9360     2.7470     5.9650 h4         1 AKQ       0.036600
     32 H12         14.2710     3.4060    13.1260 ha         1 AKQ       0.158000
     33 H13         13.4020     5.6800    12.8280 ha         1 AKQ       0.145000
     34 H14          9.9350     6.7920    11.5300 hc         1 AKQ       0.067033
     35 H15         11.0130     5.4120    11.2640 hc         1 AKQ       0.067033
     36 H16         11.1700     6.3980    12.7140 hc         1 AKQ       0.067033
     37 H17         16.4020     0.3040    10.4840 hn         1 AKQ       0.313500
     38 H18         16.3820     1.7790     9.6170 hn         1 AKQ       0.313500
     39 C01         14.8250     8.6340    10.3520 c3         1 AKQ      -0.105100
     40 H3          14.5820     2.1900     3.7840 h4         1 AKQ       0.036600
     41 H5          14.3060     9.2830    11.0560 hc         1 AKQ       0.046700
     42 H6          15.5180     8.0000    10.9080 hc         1 AKQ       0.046700
     43 H7          15.4120     9.2640     9.6820 hc         1 AKQ       0.046700
@<TRIPOS>BOND
     1     1     2 1   
     2     1     7 1   
     3     1    14 1   
     4     1    25 1   
     5     2     8 1   
     6     2    26 1   
     7     3    11 ar  
     8     3    13 ar  
     9     3    40 1   
    10     4     5 ar  
    11     4    14 ar  
    12     4    27 1   
    13     5    15 ar  
    14     5    22 1   
    15     6     7 1   
    16     6    18 1   
    17     6    28 1   
    18     6    39 1   
    19     7    29 1   
    20     7    30 1   
    21     8     9 ar  
    22     8    13 ar  
    23     9    10 ar  
    24    10    11 ar  
    25    10    31 1   
    26    11    12 1   
    27    14    17 ar  
    28    15    16 ar  
    29    15    32 1   
    30    16    17 ar  
    31    16    33 1   
    32    17    18 1   
    33    18    19 1   
    34    19    20 1   
    35    19    21 2   
    36    20    34 1   
    37    20    35 1   
    38    20    36 1   
    39    22    23 1   
    40    22    24 2   
    41    23    37 1   
    42    23    38 1   
    43    39    41 1   
    44    39    42 1   
    45    39    43 1   
@<TRIPOS>SUBSTRUCTURE
     1 AKQ         1 TEMP              0 ****  ****    0 ROOT
