@<TRIPOS>MOLECULE
AKR
    8     7     1     0     0
SMALL
No Charge or Current Charge


@<TRIPOS>ATOM
      1 CA          -0.6250    -0.0320    -0.8370 ce         1 AKR      -0.265200
      2 CB           0.0180    -0.0190    -2.0330 c2         1 AKR      -0.366000
      3 C            0.0240    -0.0130     0.5160 c          1 AKR       0.699200
      4 O            1.2420     0.0170     0.5890 o          1 AKR      -0.735500
      5 OXT         -0.7090    -0.0290     1.4920 o          1 AKR      -0.735500
      6 HA1         -1.7130    -0.0590    -0.8140 ha         1 AKR       0.134000
      7 HB2         -0.5310    -0.0350    -2.9760 ha         1 AKR       0.134000
      8 HB3          1.1070     0.0070    -2.1010 ha         1 AKR       0.134000
@<TRIPOS>BOND
     1     1     2 2   
     2     1     3 1   
     3     1     6 1   
     4     2     7 1   
     5     2     8 1   
     6     3     4 1   
     7     3     5 1   
@<TRIPOS>SUBSTRUCTURE
     1 AKR         1 TEMP              0 ****  ****    0 ROOT
