@<TRIPOS>MOLECULE
AKR
    8     7     1     0     0
SMALL
abcg2


@<TRIPOS>ATOM
      1 CA          -0.6410    -0.0310    -0.8460 ce         1 AKR      -0.265200
      2 CB           0.0080    -0.0200    -2.0040 c2         1 AKR      -0.366000
      3 C            0.0390    -0.0120     0.5080 c          1 AKR       0.699200
      4 O            1.2850     0.0230     0.5290 o          1 AKR      -0.735500
      5 OXT         -0.7260    -0.0350     1.4940 o          1 AKR      -0.735500
      6 HA1         -1.7280    -0.0560    -0.8470 ha         1 AKR       0.134000
      7 HB2         -0.5140    -0.0350    -2.9530 ha         1 AKR       0.134000
      8 HB3          1.0900     0.0040    -2.0450 ha         1 AKR       0.134000
@<TRIPOS>BOND
     1     1     2 2   
     2     1     3 1   
     3     1     6 1   
     4     2     7 1   
     5     2     8 1   
     6     3     4 1   
     7     3     5 1   
@<TRIPOS>SUBSTRUCTURE
     1 AKR         1 TEMP              0 ****  ****    0 ROOT
