@<TRIPOS>MOLECULE
AKS
   35    34     1     0     0
SMALL
No Charge or Current Charge


@<TRIPOS>ATOM
      1 C1           5.7920    -0.4190     0.0150 c3         1 AKS      -0.075400
      2 C2           4.6070     0.5630     0.1400 c3         1 AKS      -0.077400
      3 C3           3.2420    -0.1490     0.2620 c3         1 AKS      -0.066400
      4 C4           2.0560     0.8360     0.3870 c3         1 AKS      -0.155400
      5 C5           0.7180     0.0950     0.5010 c          1 AKS       0.599100
      6 C6           7.1540     0.2910    -0.1060 c3         1 AKS      -0.089100
      7 H1           5.8120    -1.0800     0.8920 hc         1 AKS       0.039700
      8 H2           5.6440    -1.0590    -0.8640 hc         1 AKS       0.039700
      9 H3           4.7600     1.2010     1.0190 hc         1 AKS       0.035200
     10 H4           4.5930     1.2220    -0.7360 hc         1 AKS       0.035200
     11 H5           3.0880    -0.7890    -0.6170 hc         1 AKS       0.054700
     12 H6           3.2570    -0.8110     1.1380 hc         1 AKS       0.054700
     13 H7           2.2000     1.4400     1.2910 hc         1 AKS       0.053700
     14 H8           2.0500     1.4860    -0.4960 hc         1 AKS       0.053700
     15 H12          7.9630    -0.4450    -0.1920 hc         1 AKS       0.031700
     16 O1           0.3690    -0.4780     1.5230 o          1 AKS      -0.605100
     17 N1          -0.0740     0.1490    -0.6230 ns         1 AKS      -0.512900
     18 C7          -1.4080    -0.4460    -0.7370 c3         1 AKS       0.103000
     19 C8          -2.4920     0.4250    -0.0700 c3         1 AKS      -0.096400
     20 C9          -3.9090    -0.1770    -0.1990 c3         1 AKS      -0.071400
     21 C10         -4.9980     0.6940     0.4690 c3         1 AKS       0.007700
     22 C11         -6.3410     0.1120     0.3390 c1         1 AKS      -0.148100
     23 C12         -7.4360    -0.3890     0.2190 c1         1 AKS      -0.243000
     24 H9           7.1790     0.9330    -0.9950 hc         1 AKS       0.031700
     25 H10          7.3480     0.9120     0.7760 hc         1 AKS       0.031700
     26 H11          0.3000     0.6520    -1.4200 hn         1 AKS       0.308500
     27 H13         -1.6440    -0.5700    -1.8030 h1         1 AKS       0.054200
     28 H14         -1.3970    -1.4430    -0.2770 h1         1 AKS       0.054200
     29 H15         -2.2510     0.5530     0.9920 hc         1 AKS       0.042200
     30 H16         -2.4800     1.4230    -0.5250 hc         1 AKS       0.042200
     31 H17         -4.1490    -0.3040    -1.2630 hc         1 AKS       0.050700
     32 H18         -3.9170    -1.1770     0.2530 hc         1 AKS       0.050700
     33 H19         -4.7670     0.8200     1.5340 hc         1 AKS       0.055200
     34 H20         -4.9990     1.6940     0.0180 hc         1 AKS       0.055200
     35 H22         -8.4010    -0.8440     0.1080 ha         1 AKS       0.255000
@<TRIPOS>BOND
     1     1     2 1   
     2     1     6 1   
     3     1     7 1   
     4     1     8 1   
     5     2     3 1   
     6     2     9 1   
     7     2    10 1   
     8     3     4 1   
     9     3    11 1   
    10     3    12 1   
    11     4     5 1   
    12     4    13 1   
    13     4    14 1   
    14     5    16 2   
    15     5    17 1   
    16     6    15 1   
    17     6    24 1   
    18     6    25 1   
    19    17    18 1   
    20    17    26 1   
    21    18    19 1   
    22    18    27 1   
    23    18    28 1   
    24    19    20 1   
    25    19    29 1   
    26    19    30 1   
    27    20    21 1   
    28    20    31 1   
    29    20    32 1   
    30    21    22 1   
    31    21    33 1   
    32    21    34 1   
    33    22    23 3   
    34    23    35 1   
@<TRIPOS>SUBSTRUCTURE
     1 AKS         1 TEMP              0 ****  ****    0 ROOT
