@<TRIPOS>MOLECULE
AKS
   35    34     1     0     0
SMALL
abcg2


@<TRIPOS>ATOM
      1 C1           5.9610    -0.2650    -0.1270 c3         1 AKS      -0.075400
      2 C2           4.6600     0.5010     0.0800 c3         1 AKS      -0.077400
      3 C3           3.4330    -0.4020     0.0910 c3         1 AKS      -0.066400
      4 C4           2.1480     0.3800     0.3270 c3         1 AKS      -0.155400
      5 C5           0.9090    -0.4910     0.3770 c          1 AKS       0.599100
      6 C6           7.1800     0.6470    -0.1410 c3         1 AKS      -0.089100
      7 H1           6.0700    -1.0110     0.6670 hc         1 AKS       0.039700
      8 H2           5.9100    -0.8250    -1.0650 hc         1 AKS       0.039700
      9 H3           4.7130     1.0530     1.0250 hc         1 AKS       0.035200
     10 H4           4.5530     1.2560    -0.7060 hc         1 AKS       0.035200
     11 H5           3.3720    -0.9410    -0.8600 hc         1 AKS       0.054700
     12 H6           3.5490    -1.1600     0.8690 hc         1 AKS       0.054700
     13 H7           2.2120     0.9020     1.2890 hc         1 AKS       0.053700
     14 H8           2.0340     1.1620    -0.4280 hc         1 AKS       0.053700
     15 H12          8.1040     0.0830    -0.2730 hc         1 AKS       0.031700
     16 O1           0.9270    -1.6340     0.8160 o          1 AKS      -0.605100
     17 N1          -0.2160     0.1000    -0.0560 ns         1 AKS      -0.512900
     18 C7          -1.5190    -0.5280    -0.0290 c3         1 AKS       0.103000
     19 C8          -2.6230     0.5180    -0.0260 c3         1 AKS      -0.096400
     20 C9          -4.0030    -0.1220    -0.0110 c3         1 AKS      -0.071400
     21 C10         -5.1140     0.9310    -0.0180 c3         1 AKS       0.007700
     22 C11         -6.4470     0.3400    -0.0230 c1         1 AKS      -0.148100
     23 C12         -7.5400    -0.1630    -0.0330 c1         1 AKS      -0.243000
     24 H9           7.1160     1.3730    -0.9530 hc         1 AKS       0.031700
     25 H10          7.2640     1.2030     0.7940 hc         1 AKS       0.031700
     26 H11         -0.1480     1.0150    -0.4740 hn         1 AKS       0.308500
     27 H13         -1.6440    -1.1980    -0.8870 h1         1 AKS       0.054200
     28 H14         -1.5960    -1.1460     0.8680 h1         1 AKS       0.054200
     29 H15         -2.5030     1.1680     0.8460 hc         1 AKS       0.042200
     30 H16         -2.5260     1.1580    -0.9100 hc         1 AKS       0.042200
     31 H17         -4.1190    -0.7760    -0.8790 hc         1 AKS       0.050700
     32 H18         -4.1100    -0.7550     0.8730 hc         1 AKS       0.050700
     33 H19         -5.0160     1.5790     0.8570 hc         1 AKS       0.055200
     34 H20         -5.0080     1.5760    -0.8930 hc         1 AKS       0.055200
     35 H22         -8.5090    -0.6070    -0.0310 ha         1 AKS       0.255000
@<TRIPOS>BOND
     1     1     2 1   
     2     1     6 1   
     3     1     7 1   
     4     1     8 1   
     5     2     3 1   
     6     2     9 1   
     7     2    10 1   
     8     3     4 1   
     9     3    11 1   
    10     3    12 1   
    11     4     5 1   
    12     4    13 1   
    13     4    14 1   
    14     5    16 2   
    15     5    17 1   
    16     6    15 1   
    17     6    24 1   
    18     6    25 1   
    19    17    18 1   
    20    17    26 1   
    21    18    19 1   
    22    18    27 1   
    23    18    28 1   
    24    19    20 1   
    25    19    29 1   
    26    19    30 1   
    27    20    21 1   
    28    20    31 1   
    29    20    32 1   
    30    21    22 1   
    31    21    33 1   
    32    21    34 1   
    33    22    23 3   
    34    23    35 1   
@<TRIPOS>SUBSTRUCTURE
     1 AKS         1 TEMP              0 ****  ****    0 ROOT
