@<TRIPOS>MOLECULE
AKT
   70    74     1     0     0
SMALL
No Charge or Current Charge


@<TRIPOS>ATOM
      1 O12         -4.5630     2.4470    -1.2310 o          1 AKT      -0.509100
      2 C12         -4.2200     1.3800    -0.7290 c          1 AKT       0.587300
      3 C15         -5.1680     0.2060    -0.6770 ca         1 AKT      -0.090600
      4 C1          -6.4630     0.3560    -1.2250 ca         1 AKT      -0.111000
      5 C2          -7.3800    -0.6990    -1.2040 ca         1 AKT      -0.047000
      6 C3          -7.0140    -1.9210    -0.6340 ca         1 AKT      -0.209000
      7 C16         -4.7860    -1.0350    -0.0940 ca         1 AKT      -0.171600
      8 C4          -5.7350    -2.0970    -0.0840 ca         1 AKT       0.195100
      9 O4          -5.4570    -3.3200     0.4520 oh         1 AKT      -0.492100
     10 C5          -3.3910    -1.1930     0.4950 c          1 AKT       0.620300
     11 O5          -3.0190    -2.2400     1.0150 o          1 AKT      -0.552100
     12 C18         -2.8370     1.2040    -0.1460 ca         1 AKT      -0.081600
     13 C17         -2.4280    -0.0200     0.4420 ca         1 AKT      -0.273600
     14 C6          -1.1130    -0.1170     0.9730 ca         1 AKT       0.238100
     15 O6          -0.7030    -1.2730     1.5710 oh         1 AKT      -0.545100
     16 C11         -1.9380     2.2910    -0.1800 ca         1 AKT      -0.119000
     17 C19         -0.6390     2.1890     0.3380 ca         1 AKT       0.002700
     18 C10          0.2540     3.4370     0.3030 c6         1 AKT      -0.070100
     19 C20         -0.2150     0.9740     0.9150 ca         1 AKT      -0.115300
     20 C7           1.2080     0.8220     1.4830 c6         1 AKT       0.250600
     21 C8           1.9550     2.1710     1.6710 c6         1 AKT      -0.088400
     22 C9           1.7700     3.1640     0.4920 c6         1 AKT       0.192000
     23 O9           2.3090     2.6150    -0.7120 oh         1 AKT      -0.640000
     24 C13          2.5540     4.4840     0.7940 c3         1 AKT      -0.104400
     25 C14          2.4800     5.6010    -0.2750 c3         1 AKT      -0.094100
     26 O7           1.9330    -0.1020     0.6330 os         1 AKT      -0.461000
     27 C21          2.8980    -0.9470     1.2920 c6         1 AKT       0.385300
     28 C22          3.1650    -2.2090     0.4370 c6         1 AKT      -0.089400
     29 C23          3.9710    -1.8940    -0.8650 c6         1 AKT       0.203500
     30 N3           4.2660    -3.1420    -1.6690 n3         1 AKT      -0.724600
     31 C28          3.0590    -3.9280    -2.0320 c3         1 AKT       0.161600
     32 C27          5.1020    -2.8870    -2.8690 c3         1 AKT       0.161600
     33 C24          5.2610    -1.0650    -0.4800 c6         1 AKT       0.145300
     34 O2           6.1850    -1.8460     0.3120 oh         1 AKT      -0.695000
     35 C25          4.8020     0.1910     0.3150 c6         1 AKT       0.130300
     36 O3           4.1270    -0.2250     1.5220 os         1 AKT      -0.477000
     37 C26          5.9660     1.1240     0.7390 c3         1 AKT      -0.092100
     38 H2          -6.7680     1.3000    -1.6740 ha         1 AKT       0.143000
     39 H3          -8.3740    -0.5680    -1.6300 ha         1 AKT       0.122000
     40 H4          -7.7360    -2.7340    -0.6240 ha         1 AKT       0.119000
     41 HO4         -6.2480    -3.8890     0.3500 ho         1 AKT       0.469000
     42 HO6         -1.4670    -1.9020     1.4990 ho         1 AKT       0.521000
     43 H11         -2.2520     3.2380    -0.6140 ha         1 AKT       0.135000
     44 H101        -0.0900     4.1160     1.0950 hc         1 AKT       0.059700
     45 H102         0.0880     3.9750    -0.6400 hc         1 AKT       0.059700
     46 H7           1.1120     0.3650     2.4790 h1         1 AKT       0.052700
     47 H81          3.0210     2.0020     1.8620 hc         1 AKT       0.060200
     48 H82          1.5710     2.6410     2.5870 hc         1 AKT       0.060200
     49 HO9          2.1650     3.2840    -1.4120 ho         1 AKT       0.438000
     50 H131         3.6140     4.2460     0.9540 hc         1 AKT       0.049200
     51 H132         2.2030     4.9070     1.7440 hc         1 AKT       0.049200
     52 H141         3.0800     6.4630     0.0390 hc         1 AKT       0.034700
     53 H142         2.8690     5.2560    -1.2400 hc         1 AKT       0.034700
     54 H143         1.4490     5.9470    -0.4170 hc         1 AKT       0.034700
     55 H1           2.4860    -1.2780     2.2580 h2         1 AKT       0.073700
     56 H2'1         3.7000    -2.9510     1.0420 hc         1 AKT       0.072200
     57 H2'2         2.1920    -2.6520     0.1950 hc         1 AKT       0.072200
     58 H9           3.3430    -1.2320    -1.4810 h1         1 AKT       0.042700
     59 H8'1         2.3410    -3.3090    -2.5870 h1         1 AKT       0.028367
     60 H8'2         3.3290    -4.7850    -2.6640 h1         1 AKT       0.028367
     61 H8'3         2.5600    -4.3330    -1.1440 h1         1 AKT       0.028367
     62 H7'1         6.0920    -2.5000    -2.5950 h1         1 AKT       0.028367
     63 H7'2         5.2660    -3.8160    -3.4330 h1         1 AKT       0.028367
     64 H7'3         4.6170    -2.1630    -3.5380 h1         1 AKT       0.028367
     65 H12          5.7550    -0.7160    -1.3970 h1         1 AKT       0.028700
     66 H15          5.8490    -1.7850     1.2340 ho         1 AKT       0.495000
     67 H5           4.1140     0.7800    -0.3080 h1         1 AKT       0.061700
     68 H6'1         6.5400     1.4550    -0.1340 hc         1 AKT       0.041033
     69 H6'2         5.5840     2.0200     1.2400 hc         1 AKT       0.041033
     70 H6'3         6.6590     0.6260     1.4280 hc         1 AKT       0.041033
@<TRIPOS>BOND
     1     1     2 2   
     2     2     3 1   
     3     2    12 1   
     4     3     4 ar  
     5     3     7 ar  
     6     4     5 ar  
     7     4    38 1   
     8     5     6 ar  
     9     5    39 1   
    10     6     8 ar  
    11     6    40 1   
    12     7     8 ar  
    13     7    10 1   
    14     8     9 1   
    15     9    41 1   
    16    10    11 2   
    17    10    13 1   
    18    12    13 ar  
    19    12    16 ar  
    20    13    14 ar  
    21    14    15 1   
    22    14    19 ar  
    23    15    42 1   
    24    16    17 ar  
    25    16    43 1   
    26    17    18 1   
    27    17    19 ar  
    28    18    22 1   
    29    18    44 1   
    30    18    45 1   
    31    19    20 1   
    32    20    21 1   
    33    20    26 1   
    34    20    46 1   
    35    21    22 1   
    36    21    47 1   
    37    21    48 1   
    38    22    23 1   
    39    22    24 1   
    40    23    49 1   
    41    24    25 1   
    42    24    50 1   
    43    24    51 1   
    44    25    52 1   
    45    25    53 1   
    46    25    54 1   
    47    26    27 1   
    48    27    28 1   
    49    27    36 1   
    50    27    55 1   
    51    28    29 1   
    52    28    56 1   
    53    28    57 1   
    54    29    30 1   
    55    29    33 1   
    56    29    58 1   
    57    30    31 1   
    58    30    32 1   
    59    31    59 1   
    60    31    60 1   
    61    31    61 1   
    62    32    62 1   
    63    32    63 1   
    64    32    64 1   
    65    33    34 1   
    66    33    35 1   
    67    33    65 1   
    68    34    66 1   
    69    35    36 1   
    70    35    37 1   
    71    35    67 1   
    72    37    68 1   
    73    37    69 1   
    74    37    70 1   
@<TRIPOS>SUBSTRUCTURE
     1 AKT         1 TEMP              0 ****  ****    0 ROOT
