@<TRIPOS>MOLECULE
AKT
   70    74     1     0     0
SMALL
bcc


@<TRIPOS>ATOM
      1 O12         -4.5130     2.2470    -1.4700 o          1 AKT      -0.509100
      2 C12         -4.1840     1.2680    -0.8330 c          1 AKT       0.587300
      3 C15         -5.1420     0.1590    -0.5900 ca         1 AKT      -0.090600
      4 C1          -6.4500     0.3400    -1.0030 ca         1 AKT      -0.129000
      5 C2          -7.3850    -0.6610    -0.7760 ca         1 AKT      -0.065000
      6 C3          -7.0140    -1.8310    -0.1510 ca         1 AKT      -0.227000
      7 C16         -4.7340    -1.0290     0.0500 ca         1 AKT      -0.171600
      8 C4          -5.6940    -2.0370     0.2640 ca         1 AKT       0.195100
      9 O4          -5.3510    -3.1790     0.8600 oh         1 AKT      -0.453100
     10 C5          -3.3350    -1.1900     0.4770 c          1 AKT       0.620300
     11 O5          -2.9240    -2.2520     0.9460 o          1 AKT      -0.552100
     12 C18         -2.8250     1.1460    -0.2640 ca         1 AKT      -0.081600
     13 C17         -2.4250    -0.0500     0.3520 ca         1 AKT      -0.273600
     14 C6          -1.1140    -0.1420     0.8550 ca         1 AKT       0.238100
     15 O6          -0.6660    -1.2450     1.4350 oh         1 AKT      -0.506100
     16 C11         -1.9580     2.2100    -0.3560 ca         1 AKT      -0.137000
     17 C19         -0.6660     2.1300     0.1760 ca         1 AKT       0.002700
     18 C10          0.2030     3.3540     0.1090 c6         1 AKT      -0.070100
     19 C20         -0.2370     0.9590     0.7790 ca         1 AKT      -0.115300
     20 C7           1.1540     0.8070     1.3450 c6         1 AKT       0.227400
     21 C8           1.8740     2.1460     1.4620 c6         1 AKT      -0.088400
     22 C9           1.6940     3.0650     0.2610 c6         1 AKT       0.168800
     23 O9           2.1770     2.3700    -0.8740 oh         1 AKT      -0.577800
     24 C13          2.4850     4.3590     0.4910 c3         1 AKT      -0.104400
     25 C14          2.4870     5.3330    -0.6810 c3         1 AKT      -0.094100
     26 O7           1.8270    -0.1340     0.5280 os         1 AKT      -0.414600
     27 C21          2.6350    -1.0600     1.1880 c6         1 AKT       0.338900
     28 C22          2.9730    -2.1650     0.2020 c6         1 AKT      -0.089400
     29 C23          3.9570    -1.6910    -0.8690 c6         1 AKT       0.203500
     30 N3           4.2700    -2.7730    -1.7930 n3         1 AKT      -0.724600
     31 C28          3.1230    -3.1510    -2.6150 c3         1 AKT       0.161600
     32 C27          5.4440    -2.5550    -2.6110 c3         1 AKT       0.161600
     33 C24          5.1840    -1.1090    -0.1690 c6         1 AKT       0.122100
     34 O2           5.8590    -2.1430     0.5090 oh         1 AKT      -0.572800
     35 C25          4.7230     0.0070     0.7720 c6         1 AKT       0.107100
     36 O3           3.7890    -0.4730     1.7280 os         1 AKT      -0.430600
     37 C26          5.8650     0.6420     1.5400 c3         1 AKT      -0.092100
     38 H2          -6.7440     1.2570    -1.4930 ha         1 AKT       0.161000
     39 H3          -8.4120    -0.5260    -1.0880 ha         1 AKT       0.140000
     40 H4          -7.7500    -2.6080     0.0220 ha         1 AKT       0.137000
     41 HO4         -6.1330    -3.7300     0.9870 ho         1 AKT       0.430000
     42 HO6         -1.3950    -1.9120     1.3950 ho         1 AKT       0.482000
     43 H11         -2.2770     3.1260    -0.8370 ha         1 AKT       0.153000
     44 H101        -0.1150     4.0420     0.8990 hc         1 AKT       0.059700
     45 H102         0.0000     3.8750    -0.8310 hc         1 AKT       0.059700
     46 H7           1.0620     0.4020     2.3630 h1         1 AKT       0.052700
     47 H81          2.9330     1.9770     1.6580 hc         1 AKT       0.060200
     48 H82          1.4830     2.6630     2.3430 hc         1 AKT       0.060200
     49 HO9          1.9680     2.8870    -1.6590 ho         1 AKT       0.399000
     50 H131         3.5170     4.0900     0.7330 hc         1 AKT       0.049200
     51 H132         2.0850     4.8610     1.3770 hc         1 AKT       0.049200
     52 H141         3.0140     6.2470    -0.4100 hc         1 AKT       0.034700
     53 H142         2.9960     4.9220    -1.5540 hc         1 AKT       0.034700
     54 H143         1.4800     5.6230    -0.9850 hc         1 AKT       0.034700
     55 H1           2.1040    -1.4730     2.0550 h2         1 AKT       0.073700
     56 H2'1         3.4090    -3.0050     0.7470 hc         1 AKT       0.072200
     57 H2'2         2.0420    -2.5250    -0.2390 hc         1 AKT       0.072200
     58 H9           3.5030    -0.8410    -1.4100 h1         1 AKT       0.042700
     59 H8'1         3.2980    -2.9470    -3.6750 h1         1 AKT       0.028367
     60 H8'2         2.8860    -4.2140    -2.5190 h1         1 AKT       0.028367
     61 H8'3         2.2250    -2.5940    -2.3450 h1         1 AKT       0.028367
     62 H7'1         6.3490    -2.5190    -2.0060 h1         1 AKT       0.028367
     63 H7'2         5.5590    -3.3950    -3.2960 h1         1 AKT       0.028367
     64 H7'3         5.4020    -1.6390    -3.2220 h1         1 AKT       0.028367
     65 H12          5.8360    -0.6310    -0.9140 h1         1 AKT       0.028700
     66 H15          6.6950    -1.8000     0.8390 ho         1 AKT       0.396000
     67 H5           4.2540     0.7760     0.1450 h1         1 AKT       0.061700
     68 H6'1         6.6810     0.9030     0.8650 hc         1 AKT       0.041033
     69 H6'2         5.5420     1.5600     2.0320 hc         1 AKT       0.041033
     70 H6'3         6.2600    -0.0230     2.3100 hc         1 AKT       0.041033
@<TRIPOS>BOND
     1     1     2 2   
     2     2     3 1   
     3     2    12 1   
     4     3     4 ar  
     5     3     7 ar  
     6     4     5 ar  
     7     4    38 1   
     8     5     6 ar  
     9     5    39 1   
    10     6     8 ar  
    11     6    40 1   
    12     7     8 ar  
    13     7    10 1   
    14     8     9 1   
    15     9    41 1   
    16    10    11 2   
    17    10    13 1   
    18    12    13 ar  
    19    12    16 ar  
    20    13    14 ar  
    21    14    15 1   
    22    14    19 ar  
    23    15    42 1   
    24    16    17 ar  
    25    16    43 1   
    26    17    18 1   
    27    17    19 ar  
    28    18    22 1   
    29    18    44 1   
    30    18    45 1   
    31    19    20 1   
    32    20    21 1   
    33    20    26 1   
    34    20    46 1   
    35    21    22 1   
    36    21    47 1   
    37    21    48 1   
    38    22    23 1   
    39    22    24 1   
    40    23    49 1   
    41    24    25 1   
    42    24    50 1   
    43    24    51 1   
    44    25    52 1   
    45    25    53 1   
    46    25    54 1   
    47    26    27 1   
    48    27    28 1   
    49    27    36 1   
    50    27    55 1   
    51    28    29 1   
    52    28    56 1   
    53    28    57 1   
    54    29    30 1   
    55    29    33 1   
    56    29    58 1   
    57    30    31 1   
    58    30    32 1   
    59    31    59 1   
    60    31    60 1   
    61    31    61 1   
    62    32    62 1   
    63    32    63 1   
    64    32    64 1   
    65    33    34 1   
    66    33    35 1   
    67    33    65 1   
    68    34    66 1   
    69    35    36 1   
    70    35    37 1   
    71    35    67 1   
    72    37    68 1   
    73    37    69 1   
    74    37    70 1   
@<TRIPOS>SUBSTRUCTURE
     1 AKT         1 TEMP              0 ****  ****    0 ROOT
