@<TRIPOS>MOLECULE
AKU
   51    54     1     0     0
SMALL
abcg2


@<TRIPOS>ATOM
      1 C4          -1.8100     0.9850     0.6500 ca         1 AKU      -0.164000
      2 C14          1.9770    -1.4470     0.3960 c3         1 AKU       0.000800
      3 C5          -1.7610    -0.3720     0.3060 ca         1 AKU      -0.097300
      4 C6          -2.8150    -0.9390    -0.3880 ca         1 AKU      -0.056300
      5 C11         -1.9600     3.7130     1.2990 c3         1 AKU       0.144900
      6 C7          -0.5390    -1.1690     0.7050 c6         1 AKU       0.167000
      7 C8          -1.4240    -2.9910    -0.6840 c6         1 AKU       0.093000
      8 C9          -2.8210    -2.3990    -0.7540 c6         1 AKU      -0.050100
      9 C10         -6.0930     1.5040    -1.3880 c3         1 AKU       0.144900
     10 C13          0.7100    -0.7290    -0.0700 c3         1 AKU      -0.086400
     11 N1          -0.7930    -2.5900     0.5560 n          1 AKU      -0.414800
     12 N2           5.0100    -0.6590    -1.5570 na         1 AKU      -0.224700
     13 C3          -2.8890     1.7750     0.3100 ca         1 AKU       0.112100
     14 C1          -3.9120    -0.1390    -0.7340 ca         1 AKU      -0.173000
     15 C15          3.2130    -0.8990    -0.2350 cc         1 AKU      -0.142400
     16 C16          3.9710    -1.4800    -1.2120 cd         1 AKU      -0.153100
     17 C17          4.9520     0.4790    -0.8090 ca         1 AKU      -0.046200
     18 C18          3.8280     0.3670     0.0410 ca         1 AKU      -0.096800
     19 C19          5.7850     1.5970    -0.7950 ca         1 AKU      -0.128000
     20 C2          -3.9650     1.2000    -0.4010 ca         1 AKU       0.121100
     21 C20          5.4750     2.6120     0.0900 ca         1 AKU      -0.092000
     22 C21          4.3650     2.5210     0.9460 ca         1 AKU      -0.142000
     23 C22          3.5430     1.4110     0.9290 ca         1 AKU      -0.064000
     24 O1          -4.9780     2.0340    -0.7010 os         1 AKU      -0.319100
     25 O2          -3.0170     3.0830     0.6070 os         1 AKU      -0.320100
     26 O3          -0.8100    -4.6450     1.5440 o          1 AKU      -0.606100
     27 H1          -0.9830     1.4090     1.2040 ha         1 AKU       0.118000
     28 H2           2.0500    -1.3670     1.4870 hc         1 AKU       0.044700
     29 H3           1.8980    -2.5130     0.1740 hc         1 AKU       0.044700
     30 H4          -2.2590     4.7480     1.4440 h1         1 AKU       0.040033
     31 H5          -1.7810     3.2590     2.2780 h1         1 AKU       0.040033
     32 H6          -1.0280     3.6920     0.7270 h1         1 AKU       0.040033
     33 H7          -0.3440    -0.9880     1.7680 h1         1 AKU       0.057700
     34 H8          -1.4500    -4.0770    -0.7420 h1         1 AKU       0.061700
     35 H9          -0.8210    -2.6350    -1.5220 h1         1 AKU       0.061700
     36 H10         -3.4840    -2.9470    -0.0790 hc         1 AKU       0.058200
     37 H11         -3.2230    -2.5370    -1.7600 hc         1 AKU       0.058200
     38 H12         -5.8180     1.0970    -2.3650 h1         1 AKU       0.040367
     39 H13         -6.5940     0.7220    -0.8110 h1         1 AKU       0.040367
     40 H14         -6.7860     2.3290    -1.5350 h1         1 AKU       0.040367
     41 H15         -0.1520    -2.9500     2.4500 h5         1 AKU       0.007200
     42 H16          0.8260     0.3490     0.0630 hc         1 AKU       0.054700
     43 H17          0.5670    -0.8830    -1.1430 hc         1 AKU       0.054700
     44 H18          5.7120    -0.8760    -2.2440 hn         1 AKU       0.351000
     45 H19         -4.7280    -0.6000    -1.2760 ha         1 AKU       0.119000
     46 H20          3.8450    -2.4370    -1.6940 h4         1 AKU       0.213000
     47 H21          6.6440     1.6660    -1.4510 ha         1 AKU       0.113000
     48 H22          6.1020     3.4940     0.1250 ha         1 AKU       0.110000
     49 H23          4.1540     3.3340     1.6280 ha         1 AKU       0.109000
     50 H24          2.6930     1.3500     1.5980 ha         1 AKU       0.109000
     51 C12         -0.5800    -3.4470     1.5650 c          1 AKU       0.605900
@<TRIPOS>BOND
     1     1     3 ar  
     2     1    13 ar  
     3     1    27 1   
     4     2    10 1   
     5     2    15 1   
     6     2    28 1   
     7     2    29 1   
     8     3     4 ar  
     9     3     6 1   
    10     4     8 1   
    11     4    14 ar  
    12     5    25 1   
    13     5    30 1   
    14     5    31 1   
    15     5    32 1   
    16     6    10 1   
    17     6    11 1   
    18     6    33 1   
    19     7     8 1   
    20     7    11 1   
    21     7    34 1   
    22     7    35 1   
    23     8    36 1   
    24     8    37 1   
    25     9    24 1   
    26     9    38 1   
    27     9    39 1   
    28     9    40 1   
    29    10    42 1   
    30    10    43 1   
    31    11    51 1   
    32    12    16 1   
    33    12    17 1   
    34    12    44 1   
    35    13    20 ar  
    36    13    25 1   
    37    14    20 ar  
    38    14    45 1   
    39    15    16 2   
    40    15    18 1   
    41    16    46 1   
    42    17    18 ar  
    43    17    19 ar  
    44    18    23 ar  
    45    19    21 ar  
    46    19    47 1   
    47    20    24 1   
    48    21    22 ar  
    49    21    48 1   
    50    22    23 ar  
    51    22    49 1   
    52    23    50 1   
    53    26    51 2   
    54    41    51 1   
@<TRIPOS>SUBSTRUCTURE
     1 AKU         1 TEMP              0 ****  ****    0 ROOT
