@<TRIPOS>MOLECULE
AKU
   51    54     1     0     0
SMALL
No Charge or Current Charge


@<TRIPOS>ATOM
      1 C4          -1.8150     1.0010     0.6840 ca         1 AKU      -0.164000
      2 C14          2.0320    -1.4600     0.4290 c3         1 AKU       0.000800
      3 C5          -1.7680    -0.3640     0.3370 ca         1 AKU      -0.097300
      4 C6          -2.8420    -0.9340    -0.3870 ca         1 AKU      -0.056300
      5 C11         -1.9340     3.8240     1.3580 c3         1 AKU       0.144900
      6 C7          -0.5490    -1.2090     0.7620 c6         1 AKU       0.167000
      7 C8          -1.4470    -3.0550    -0.6560 c6         1 AKU       0.093000
      8 C9          -2.8470    -2.4230    -0.7450 c6         1 AKU      -0.050100
      9 C10         -6.1800     1.5470    -1.5190 c3         1 AKU       0.144900
     10 C13          0.7300    -0.7440     0.0050 c3         1 AKU      -0.086400
     11 N1          -0.7910    -2.6620     0.6110 n          1 AKU      -0.414800
     12 N2           5.0510    -0.6290    -1.6550 na         1 AKU      -0.224700
     13 C3          -2.9130     1.8060     0.3050 ca         1 AKU       0.112100
     14 C1          -3.9400    -0.1370    -0.7600 ca         1 AKU      -0.173000
     15 C15          3.2510    -0.9010    -0.2560 cc         1 AKU      -0.142400
     16 C16          3.9900    -1.4890    -1.2780 cd         1 AKU      -0.153100
     17 C17          4.9420     0.4860    -0.8450 ca         1 AKU      -0.046200
     18 C18          3.8800     0.3630     0.0070 ca         1 AKU      -0.096800
     19 C19          5.7630     1.6220    -0.8330 ca         1 AKU      -0.128000
     20 C2          -3.9820     1.2340    -0.4220 ca         1 AKU       0.121100
     21 C20          5.4660     2.6480     0.0910 ca         1 AKU      -0.092000
     22 C21          4.3680     2.5170     0.9740 ca         1 AKU      -0.142000
     23 C22          3.5590     1.3620     0.9390 ca         1 AKU      -0.064000
     24 O1          -5.0500     2.0420    -0.7800 os         1 AKU      -0.319100
     25 O2          -2.9770     3.1520     0.6300 os         1 AKU      -0.320100
     26 O3          -0.7450    -4.7700     1.5650 o          1 AKU      -0.606100
     27 H1          -0.9890     1.4220     1.2490 ha         1 AKU       0.118000
     28 H2           2.1530    -1.3740     1.5160 hc         1 AKU       0.044700
     29 H3           1.9480    -2.5310     0.2080 hc         1 AKU       0.044700
     30 H4          -2.1900     4.8810     1.4990 h1         1 AKU       0.040033
     31 H5          -1.7970     3.3720     2.3490 h1         1 AKU       0.040033
     32 H6          -0.9830     3.7740     0.8120 h1         1 AKU       0.040033
     33 H7          -0.3790    -1.0030     1.8290 h1         1 AKU       0.057700
     34 H8          -1.5260    -4.1480    -0.7390 h1         1 AKU       0.061700
     35 H9          -0.8350    -2.7080    -1.5010 h1         1 AKU       0.061700
     36 H10         -3.5230    -2.9490    -0.0580 hc         1 AKU       0.058200
     37 H11         -3.2510    -2.5730    -1.7550 hc         1 AKU       0.058200
     38 H12         -5.8660     1.1550    -2.4950 h1         1 AKU       0.040367
     39 H13         -6.6900     0.7500    -0.9650 h1         1 AKU       0.040367
     40 H14         -6.9020     2.3550    -1.6940 h1         1 AKU       0.040367
     41 H15         -0.0550    -3.0890     2.5330 h5         1 AKU       0.007200
     42 H16          0.8690     0.3320     0.1560 hc         1 AKU       0.054700
     43 H17          0.5930    -0.8780    -1.0750 hc         1 AKU       0.054700
     44 H18          5.7490    -0.7960    -2.3740 hn         1 AKU       0.351000
     45 H19         -4.7540    -0.6020    -1.3090 ha         1 AKU       0.119000
     46 H20          3.8350    -2.4500    -1.7640 h4         1 AKU       0.213000
     47 H21          6.6060     1.7120    -1.5140 ha         1 AKU       0.113000
     48 H22          6.0850     3.5420     0.1240 ha         1 AKU       0.110000
     49 H23          4.1470     3.3110     1.6840 ha         1 AKU       0.109000
     50 H24          2.7160     1.2500     1.6160 ha         1 AKU       0.109000
     51 C12         -0.5100    -3.5690     1.6460 c          1 AKU       0.605900
@<TRIPOS>BOND
     1     1     3 ar  
     2     1    13 ar  
     3     1    27 1   
     4     2    10 1   
     5     2    15 1   
     6     2    28 1   
     7     2    29 1   
     8     3     4 ar  
     9     3     6 1   
    10     4     8 1   
    11     4    14 ar  
    12     5    25 1   
    13     5    30 1   
    14     5    31 1   
    15     5    32 1   
    16     6    10 1   
    17     6    11 1   
    18     6    33 1   
    19     7     8 1   
    20     7    11 1   
    21     7    34 1   
    22     7    35 1   
    23     8    36 1   
    24     8    37 1   
    25     9    24 1   
    26     9    38 1   
    27     9    39 1   
    28     9    40 1   
    29    10    42 1   
    30    10    43 1   
    31    11    51 1   
    32    12    16 1   
    33    12    17 1   
    34    12    44 1   
    35    13    20 ar  
    36    13    25 1   
    37    14    20 ar  
    38    14    45 1   
    39    15    16 2   
    40    15    18 1   
    41    16    46 1   
    42    17    18 ar  
    43    17    19 ar  
    44    18    23 ar  
    45    19    21 ar  
    46    19    47 1   
    47    20    24 1   
    48    21    22 ar  
    49    21    48 1   
    50    22    23 ar  
    51    22    49 1   
    52    23    50 1   
    53    26    51 2   
    54    41    51 1   
@<TRIPOS>SUBSTRUCTURE
     1 AKU         1 TEMP              0 ****  ****    0 ROOT
