@<TRIPOS>MOLECULE
AKV
   52    54     1     0     0
SMALL
No Charge or Current Charge


@<TRIPOS>ATOM
      1 O20         -2.5230     2.2380     0.9960 o          1 AKV      -0.627100
      2 C5          -2.6300     1.1580     0.4180 c          1 AKV       0.636300
      3 C17         -1.3990     0.3550     0.0600 ca         1 AKV      -0.252600
      4 C6          -0.1000     0.8150     0.3940 ca         1 AKV       0.228100
      5 O21          0.0320     2.0050     1.0540 oh         1 AKV      -0.564100
      6 C16         -3.9940     0.6250     0.0580 ca         1 AKV      -0.261600
      7 C4          -5.1680     1.3480     0.3880 ca         1 AKV       0.225100
      8 O19         -5.0990     2.5410     1.0380 oh         1 AKV      -0.533100
      9 C3          -6.4330     0.8500     0.0520 ca         1 AKV      -0.153000
     10 C2          -6.5560    -0.3730    -0.6170 ca         1 AKV      -0.045000
     11 C1          -5.4050    -1.1000    -0.9520 ca         1 AKV      -0.111000
     12 C21         -4.1180    -0.6150    -0.6220 ca         1 AKV      -0.079600
     13 C12         -2.8990    -1.4270    -1.0000 c          1 AKV       0.586300
     14 O18         -3.0100    -2.4960    -1.5930 o          1 AKV      -0.501100
     15 C18         -1.5390    -0.8780    -0.6220 ca         1 AKV      -0.078600
     16 C11         -0.3860    -1.6100    -0.9640 ca         1 AKV      -0.095000
     17 C19          0.9050    -1.1560    -0.6450 ca         1 AKV       0.001700
     18 C10          2.0840    -2.0290    -1.0920 c3         1 AKV      -0.109100
     19 C14          2.4960    -3.0060     0.0110 c          1 AKV       0.592100
     20 O16          3.7410    -2.7220     0.5110 os         1 AKV      -0.442100
     21 C15          4.2550    -3.5580     1.5630 c3         1 AKV       0.149900
     22 O17          1.7950    -3.9350     0.3890 o          1 AKV      -0.462000
     23 C20          1.0630     0.0670     0.0590 ca         1 AKV      -0.136300
     24 C7           2.4710     0.5900     0.4190 c3         1 AKV       0.231600
     25 O22          2.4780     1.1330     1.7390 oh         1 AKV      -0.640000
     26 C8           2.9430     1.6700    -0.5830 c3         1 AKV      -0.143400
     27 C9           4.4250     2.0830    -0.4240 c3         1 AKV       0.165300
     28 O23          5.2570     0.9690    -0.7670 oh         1 AKV      -0.653000
     29 C13          4.7950     3.2880    -1.3240 c3         1 AKV      -0.109400
     30 C22          6.2380     3.8020    -1.1300 c3         1 AKV      -0.085100
     31 H21         -0.8930     2.3600     1.1610 ho         1 AKV       0.526000
     32 H19         -4.1320     2.7170     1.1780 ho         1 AKV       0.517000
     33 H3          -7.3230     1.4170     0.3130 ha         1 AKV       0.138000
     34 H2          -7.5400    -0.7580    -0.8770 ha         1 AKV       0.125000
     35 H1          -5.5200    -2.0490    -1.4730 ha         1 AKV       0.142000
     36 H11         -0.4920    -2.5550    -1.4930 ha         1 AKV       0.142000
     37 H101         1.7890    -2.6260    -1.9620 hc         1 AKV       0.085200
     38 H102         2.9400    -1.4180    -1.3950 hc         1 AKV       0.085200
     39 H151         5.2530    -3.2180     1.8670 h1         1 AKV       0.050367
     40 H152         3.6020    -3.5240     2.4450 h1         1 AKV       0.050367
     41 H153         4.3380    -4.6010     1.2310 h1         1 AKV       0.050367
     42 H7           3.1930    -0.2340     0.3890 h1         1 AKV       0.086700
     43 H22          1.6280     1.6350     1.7870 ho         1 AKV       0.454000
     44 H81          2.3080     2.5580    -0.4760 hc         1 AKV       0.051200
     45 H82          2.7830     1.3010    -1.6040 hc         1 AKV       0.051200
     46 H9           4.5930     2.3750     0.6240 h1         1 AKV       0.086700
     47 H23          5.2950     0.9330    -1.7470 ho         1 AKV       0.432000
     48 H131         4.1060     4.1140    -1.1070 hc         1 AKV       0.040200
     49 H132         4.6440     3.0250    -2.3780 hc         1 AKV       0.040200
     50 H221         6.4110     4.0880    -0.0850 hc         1 AKV       0.037033
     51 H222         6.9730     3.0360    -1.4050 hc         1 AKV       0.037033
     52 H223         6.4160     4.6830    -1.7580 hc         1 AKV       0.037033
@<TRIPOS>BOND
     1     1     2 2   
     2     2     3 1   
     3     2     6 1   
     4     3     4 ar  
     5     3    15 ar  
     6     4     5 1   
     7     4    23 ar  
     8     5    31 1   
     9     6     7 ar  
    10     6    12 ar  
    11     7     8 1   
    12     7     9 ar  
    13     8    32 1   
    14     9    10 ar  
    15     9    33 1   
    16    10    11 ar  
    17    10    34 1   
    18    11    12 ar  
    19    11    35 1   
    20    12    13 1   
    21    13    14 2   
    22    13    15 1   
    23    15    16 ar  
    24    16    17 ar  
    25    16    36 1   
    26    17    18 1   
    27    17    23 ar  
    28    18    19 1   
    29    18    37 1   
    30    18    38 1   
    31    19    20 1   
    32    19    22 2   
    33    20    21 1   
    34    21    39 1   
    35    21    40 1   
    36    21    41 1   
    37    23    24 1   
    38    24    25 1   
    39    24    26 1   
    40    24    42 1   
    41    25    43 1   
    42    26    27 1   
    43    26    44 1   
    44    26    45 1   
    45    27    28 1   
    46    27    29 1   
    47    27    46 1   
    48    28    47 1   
    49    29    30 1   
    50    29    48 1   
    51    29    49 1   
    52    30    50 1   
    53    30    51 1   
    54    30    52 1   
@<TRIPOS>SUBSTRUCTURE
     1 AKV         1 TEMP              0 ****  ****    0 ROOT
