@<TRIPOS>MOLECULE
AKV
   52    54     1     0     0
SMALL
bcc


@<TRIPOS>ATOM
      1 O20         -2.5250     2.2620     0.8550 o          1 AKV      -0.627100
      2 C5          -2.6200     1.1480     0.3060 c          1 AKV       0.636300
      3 C17         -1.4240     0.3780    -0.0030 ca         1 AKV      -0.252600
      4 C6          -0.1550     0.8740     0.3370 ca         1 AKV       0.228100
      5 O21         -0.0040     2.0650     0.9110 oh         1 AKV      -0.525100
      6 C16         -3.9300     0.6050    -0.0250 ca         1 AKV      -0.261600
      7 C4          -5.0950     1.3290     0.2970 ca         1 AKV       0.225100
      8 O19         -5.0740     2.5090     0.8990 oh         1 AKV      -0.494100
      9 C3          -6.3470     0.7890    -0.0250 ca         1 AKV      -0.171000
     10 C2          -6.4360    -0.4330    -0.6490 ca         1 AKV      -0.063000
     11 C1          -5.2910    -1.1580    -0.9760 ca         1 AKV      -0.129000
     12 C21         -4.0490    -0.6440    -0.6650 ca         1 AKV      -0.079600
     13 C12         -2.8390    -1.4290    -1.0150 c          1 AKV       0.586300
     14 O18         -2.9300    -2.4940    -1.5910 o          1 AKV      -0.501100
     15 C18         -1.5210    -0.8710    -0.6360 ca         1 AKV      -0.078600
     16 C11         -0.3790    -1.5860    -0.9190 ca         1 AKV      -0.113000
     17 C19          0.8820    -1.0930    -0.5750 ca         1 AKV       0.001700
     18 C10          2.0830    -1.9310    -0.9060 c3         1 AKV      -0.109100
     19 C14          2.5590    -2.7130     0.3010 c          1 AKV       0.641100
     20 O16          3.8180    -3.1110     0.1500 os         1 AKV      -0.418900
     21 C15          4.3780    -3.8830     1.2070 c3         1 AKV       0.126700
     22 O17          1.8820    -2.9620     1.2570 o          1 AKV      -0.511000
     23 C20          1.0090     0.1310     0.0700 ca         1 AKV      -0.136300
     24 C7           2.3660     0.6880     0.4690 c3         1 AKV       0.208400
     25 O22          2.4230     1.1150     1.8020 oh         1 AKV      -0.577800
     26 C8           2.8210     1.7660    -0.5220 c3         1 AKV      -0.143400
     27 C9           4.3050     2.0950    -0.3850 c3         1 AKV       0.142100
     28 O23          5.1030     0.9660    -0.6810 oh         1 AKV      -0.590800
     29 C13          4.6910     3.3080    -1.2260 c3         1 AKV      -0.109400
     30 C22          6.1530     3.7060    -1.0820 c3         1 AKV      -0.085100
     31 H21         -0.8960     2.4610     1.0490 ho         1 AKV       0.487000
     32 H19         -4.1390     2.7610     1.0520 ho         1 AKV       0.478000
     33 H3          -7.2390     1.3480     0.2240 ha         1 AKV       0.156000
     34 H2          -7.4100    -0.8370    -0.8890 ha         1 AKV       0.143000
     35 H1          -5.3780    -2.1170    -1.4640 ha         1 AKV       0.160000
     36 H11         -0.4570    -2.5450    -1.4120 ha         1 AKV       0.160000
     37 H101         1.8300    -2.6590    -1.6820 hc         1 AKV       0.085200
     38 H102         2.9010    -1.3430    -1.3230 hc         1 AKV       0.085200
     39 H151         5.3890    -4.1270     0.8960 h1         1 AKV       0.050367
     40 H152         4.4110    -3.3160     2.1370 h1         1 AKV       0.050367
     41 H153         3.8170    -4.8020     1.3740 h1         1 AKV       0.050367
     42 H7           3.0980    -0.1180     0.4210 h1         1 AKV       0.086700
     43 H22          1.7980     1.8360     1.9210 ho         1 AKV       0.415000
     44 H81          2.2220     2.6720    -0.3860 hc         1 AKV       0.051200
     45 H82          2.6180     1.4320    -1.5480 hc         1 AKV       0.051200
     46 H9           4.5150     2.3210     0.6650 h1         1 AKV       0.086700
     47 H23          5.0510     0.8050    -1.6280 ho         1 AKV       0.393000
     48 H131         4.0530     4.1470    -0.9350 hc         1 AKV       0.040200
     49 H132         4.4560     3.1120    -2.2800 hc         1 AKV       0.040200
     50 H221         6.3920     3.9460    -0.0450 hc         1 AKV       0.037033
     51 H222         6.8220     2.9050    -1.3930 hc         1 AKV       0.037033
     52 H223         6.3820     4.5830    -1.6860 hc         1 AKV       0.037033
@<TRIPOS>BOND
     1     1     2 2   
     2     2     3 1   
     3     2     6 1   
     4     3     4 ar  
     5     3    15 ar  
     6     4     5 1   
     7     4    23 ar  
     8     5    31 1   
     9     6     7 ar  
    10     6    12 ar  
    11     7     8 1   
    12     7     9 ar  
    13     8    32 1   
    14     9    10 ar  
    15     9    33 1   
    16    10    11 ar  
    17    10    34 1   
    18    11    12 ar  
    19    11    35 1   
    20    12    13 1   
    21    13    14 2   
    22    13    15 1   
    23    15    16 ar  
    24    16    17 ar  
    25    16    36 1   
    26    17    18 1   
    27    17    23 ar  
    28    18    19 1   
    29    18    37 1   
    30    18    38 1   
    31    19    20 1   
    32    19    22 2   
    33    20    21 1   
    34    21    39 1   
    35    21    40 1   
    36    21    41 1   
    37    23    24 1   
    38    24    25 1   
    39    24    26 1   
    40    24    42 1   
    41    25    43 1   
    42    26    27 1   
    43    26    44 1   
    44    26    45 1   
    45    27    28 1   
    46    27    29 1   
    47    27    46 1   
    48    28    47 1   
    49    29    30 1   
    50    29    48 1   
    51    29    49 1   
    52    30    50 1   
    53    30    51 1   
    54    30    52 1   
@<TRIPOS>SUBSTRUCTURE
     1 AKV         1 TEMP              0 ****  ****    0 ROOT
