@<TRIPOS>MOLECULE
AKX
   94    98     1     0     0
SMALL
bcc


@<TRIPOS>ATOM
      1 O3           6.2620     0.8850     0.6900 oh         1 AKX      -0.588800
      2 C25          5.8880     0.1890    -0.4810 c3         1 AKX       0.172800
      3 C27          6.8990     0.4730    -1.6180 c3         1 AKX      -0.041600
      4 C34          8.3120     0.0490    -1.3400 ca         1 AKX      -0.072800
      5 C39          8.8120    -1.1470    -1.8520 ca         1 AKX      -0.118750
      6 C38         10.1130    -1.5550    -1.5860 ca         1 AKX      -0.130750
      7 C37         10.9420    -0.7650    -0.8000 ca         1 AKX      -0.129500
      8 C36         10.4590     0.4340    -0.2900 ca         1 AKX      -0.130750
      9 C35          9.1580     0.8350    -0.5580 ca         1 AKX      -0.118750
     10 C26          5.9360    -1.3080    -0.1280 c3         1 AKX      -0.041600
     11 C28          4.8720    -1.7780     0.8210 ca         1 AKX      -0.072800
     12 C33          3.7090    -2.3780     0.3440 ca         1 AKX      -0.118750
     13 C32          2.6930    -2.7610     1.2080 ca         1 AKX      -0.130750
     14 C31          2.8320    -2.5640     2.5750 ca         1 AKX      -0.129500
     15 C30          3.9990    -1.9920     3.0670 ca         1 AKX      -0.130750
     16 C29          5.0090    -1.6050     2.1970 ca         1 AKX      -0.118750
     17 C24          4.4920     0.6170    -0.9830 c3         1 AKX      -0.105400
     18 C23          3.4810     1.0440     0.0790 c3         1 AKX      -0.071400
     19 C22          2.1060     1.2770    -0.5400 c3         1 AKX      -0.076400
     20 C20          0.9600     1.4650     0.4650 c3         1 AKX      -0.046700
     21 C21          1.2530     2.6360     1.3990 c3         1 AKX      -0.086100
     22 C17         -0.3590     1.6110    -0.3070 c5         1 AKX      -0.053700
     23 C13         -1.6730     1.8820     0.4640 c5         1 AKX      -0.033000
     24 C18         -1.8180     0.9370     1.6580 c3         1 AKX      -0.078100
     25 C12         -1.9120     3.3350     0.8830 c6         1 AKX      -0.062400
     26 C11         -3.3600     3.5820     1.3080 c6         1 AKX      -0.071400
     27 C9          -4.3790     3.1260     0.2580 c6         1 AKX      -0.042200
     28 C16         -0.6830     0.3480    -1.1520 c5         1 AKX      -0.077400
     29 C15         -2.2180     0.2190    -1.2110 c5         1 AKX      -0.071400
     30 C14         -2.7040     1.5420    -0.6420 c5         1 AKX      -0.036500
     31 C8          -4.1180     1.7120    -0.1830 c2         1 AKX      -0.080400
     32 C7          -5.0130     0.7100    -0.1730 ce         1 AKX      -0.138000
     33 C6          -6.4000     0.8050     0.2420 ce         1 AKX      -0.111000
     34 C5          -7.2970    -0.1930     0.2940 c2         1 AKX      -0.105400
     35 C10         -8.7110     0.0650     0.7260 c6         1 AKX      -0.032200
     36 C1          -9.7040    -0.3980    -0.3390 c6         1 AKX       0.188300
     37 O1          -9.5430     0.4440    -1.4640 oh         1 AKX      -0.591800
     38 C4          -7.0280    -1.6220    -0.0750 c6         1 AKX      -0.032200
     39 C3          -8.0140    -2.1070    -1.1450 c6         1 AKX       0.188300
     40 O2          -7.7450    -3.4630    -1.3960 oh         1 AKX      -0.591800
     41 C2          -9.4240    -1.8410    -0.6810 c2         1 AKX      -0.198400
     42 C40        -10.3450    -2.7850    -0.5240 c2         1 AKX      -0.198000
     43 H1           6.1980     1.8310     0.5210 ho         1 AKX       0.400000
     44 H2           6.5380    -0.0190    -2.5260 hc         1 AKX       0.053200
     45 H3           6.8720     1.5470    -1.8260 hc         1 AKX       0.053200
     46 H4           8.1740    -1.7680    -2.4690 ha         1 AKX       0.129250
     47 H5          10.4790    -2.4870    -1.9960 ha         1 AKX       0.128500
     48 H6          11.9580    -1.0760    -0.5930 ha         1 AKX       0.129000
     49 H7          11.1000     1.0600     0.3180 ha         1 AKX       0.128500
     50 H8           8.8030     1.7790    -0.1650 ha         1 AKX       0.129250
     51 H9           5.8660    -1.8740    -1.0610 hc         1 AKX       0.053200
     52 H10          6.9230    -1.5270     0.2880 hc         1 AKX       0.053200
     53 H11          3.5900    -2.5350    -0.7220 ha         1 AKX       0.129250
     54 H12          1.7930    -3.2140     0.8130 ha         1 AKX       0.128500
     55 H13          2.0430    -2.8620     3.2530 ha         1 AKX       0.129000
     56 H14          4.1230    -1.8460     4.1330 ha         1 AKX       0.128500
     57 H15          5.9120    -1.1580     2.5930 ha         1 AKX       0.129250
     58 H16          4.6080     1.4490    -1.6880 hc         1 AKX       0.040200
     59 H17          4.0730    -0.2040    -1.5730 hc         1 AKX       0.040200
     60 H18          3.3920     0.2890     0.8630 hc         1 AKX       0.049700
     61 H19          3.8300     1.9570     0.5670 hc         1 AKX       0.049700
     62 H20          2.1430     2.1480    -1.2070 hc         1 AKX       0.034700
     63 H21          1.8790     0.4200    -1.1800 hc         1 AKX       0.034700
     64 H22          0.9080     0.5510     1.0710 hc         1 AKX       0.051700
     65 H23          0.5250     2.7200     2.2040 hc         1 AKX       0.032700
     66 H24          2.2280     2.5260     1.8750 hc         1 AKX       0.032700
     67 H25          1.2600     3.5840     0.8550 hc         1 AKX       0.032700
     68 H26         -0.2300     2.4560    -0.9980 hc         1 AKX       0.042700
     69 H27         -1.1350     1.2120     2.4620 hc         1 AKX       0.034700
     70 H28         -2.8290     0.9530     2.0680 hc         1 AKX       0.034700
     71 H29         -1.5990    -0.0990     1.3950 hc         1 AKX       0.034700
     72 H30         -1.2490     3.6340     1.6960 hc         1 AKX       0.039700
     73 H31         -1.6690     3.9870     0.0350 hc         1 AKX       0.039700
     74 H32         -3.5670     3.0710     2.2520 hc         1 AKX       0.039700
     75 H33         -3.5040     4.6470     1.5060 hc         1 AKX       0.039700
     76 H34         -5.3890     3.2650     0.6430 hc         1 AKX       0.046200
     77 H35         -4.2890     3.7770    -0.6200 hc         1 AKX       0.046200
     78 H36         -0.2580     0.4290    -2.1530 hc         1 AKX       0.040200
     79 H37         -0.2340    -0.5400    -0.7010 hc         1 AKX       0.040200
     80 H38         -2.5860     0.0450    -2.2230 hc         1 AKX       0.044700
     81 H39         -2.5580    -0.6240    -0.6050 hc         1 AKX       0.044700
     82 H40         -2.5440     2.3040    -1.4220 hc         1 AKX       0.051700
     83 H41         -4.6730    -0.2600    -0.5190 ha         1 AKX       0.122000
     84 H42         -6.7550     1.7850     0.5440 ha         1 AKX       0.119000
     85 H43         -8.9340    -0.4910     1.6440 hc         1 AKX       0.057950
     86 H44         -8.8700     1.1230     0.9480 hc         1 AKX       0.057950
     87 H45        -10.7210    -0.3190     0.0670 h1         1 AKX       0.042200
     88 H46        -10.1780     0.1700    -2.1340 ho         1 AKX       0.402500
     89 H47         -6.0090    -1.7730    -0.4330 hc         1 AKX       0.057950
     90 H48         -7.1520    -2.2550     0.8130 hc         1 AKX       0.057950
     91 H49         -7.8350    -1.5080    -2.0500 h1         1 AKX       0.042200
     92 H50         -8.2340    -3.7320    -2.1800 ho         1 AKX       0.402500
     93 H51        -11.3400    -2.5380    -0.1740 ha         1 AKX       0.117500
     94 H52        -10.1520    -3.8310    -0.7260 ha         1 AKX       0.117500
@<TRIPOS>BOND
     1     1     2 1   
     2     1    43 1   
     3     2     3 1   
     4     2    10 1   
     5     2    17 1   
     6     3     4 1   
     7     3    44 1   
     8     3    45 1   
     9     4     5 ar  
    10     4     9 ar  
    11     5     6 ar  
    12     5    46 1   
    13     6     7 ar  
    14     6    47 1   
    15     7     8 ar  
    16     7    48 1   
    17     8     9 ar  
    18     8    49 1   
    19     9    50 1   
    20    10    11 1   
    21    10    51 1   
    22    10    52 1   
    23    11    12 ar  
    24    11    16 ar  
    25    12    13 ar  
    26    12    53 1   
    27    13    14 ar  
    28    13    54 1   
    29    14    15 ar  
    30    14    55 1   
    31    15    16 ar  
    32    15    56 1   
    33    16    57 1   
    34    17    18 1   
    35    17    58 1   
    36    17    59 1   
    37    18    19 1   
    38    18    60 1   
    39    18    61 1   
    40    19    20 1   
    41    19    62 1   
    42    19    63 1   
    43    20    21 1   
    44    20    22 1   
    45    20    64 1   
    46    21    65 1   
    47    21    66 1   
    48    21    67 1   
    49    22    23 1   
    50    22    28 1   
    51    22    68 1   
    52    23    24 1   
    53    23    25 1   
    54    23    30 1   
    55    24    69 1   
    56    24    70 1   
    57    24    71 1   
    58    25    26 1   
    59    25    72 1   
    60    25    73 1   
    61    26    27 1   
    62    26    74 1   
    63    26    75 1   
    64    27    31 1   
    65    27    76 1   
    66    27    77 1   
    67    28    29 1   
    68    28    78 1   
    69    28    79 1   
    70    29    30 1   
    71    29    80 1   
    72    29    81 1   
    73    30    31 1   
    74    30    82 1   
    75    31    32 2   
    76    32    33 1   
    77    32    83 1   
    78    33    34 2   
    79    33    84 1   
    80    34    35 1   
    81    34    38 1   
    82    35    36 1   
    83    35    85 1   
    84    35    86 1   
    85    36    37 1   
    86    36    41 1   
    87    36    87 1   
    88    37    88 1   
    89    38    39 1   
    90    38    89 1   
    91    38    90 1   
    92    39    40 1   
    93    39    41 1   
    94    39    91 1   
    95    40    92 1   
    96    41    42 2   
    97    42    93 1   
    98    42    94 1   
@<TRIPOS>SUBSTRUCTURE
     1 AKX         1 TEMP              0 ****  ****    0 ROOT
