@<TRIPOS>MOLECULE
AKX
   94    98     1     0     0
SMALL
No Charge or Current Charge


@<TRIPOS>ATOM
      1 O3           6.4070     0.8860     0.6490 oh         1 AKX      -0.651000
      2 C25          5.9750     0.2470    -0.5600 c3         1 AKX       0.196000
      3 C27          7.1070     0.4120    -1.6260 c3         1 AKX      -0.041600
      4 C34          8.4210    -0.3090    -1.3110 ca         1 AKX      -0.072800
      5 C39          8.7020    -1.5610    -1.8960 ca         1 AKX      -0.100750
      6 C38          9.9100    -2.2220    -1.6140 ca         1 AKX      -0.112750
      7 C37         10.8490    -1.6350    -0.7500 ca         1 AKX      -0.111500
      8 C36         10.5790    -0.3840    -0.1690 ca         1 AKX      -0.112750
      9 C35          9.3710     0.2770    -0.4510 ca         1 AKX      -0.100750
     10 C26          5.7360    -1.2770    -0.2740 c3         1 AKX      -0.041600
     11 C28          4.5370    -1.6280     0.6050 ca         1 AKX      -0.072800
     12 C33          3.3070    -1.9950     0.0180 ca         1 AKX      -0.100750
     13 C32          2.1950    -2.2880     0.8250 ca         1 AKX      -0.112750
     14 C31          2.3050    -2.2270     2.2240 ca         1 AKX      -0.111500
     15 C30          3.5300    -1.8750     2.8160 ca         1 AKX      -0.112750
     16 C29          4.6430    -1.5790     2.0090 ca         1 AKX      -0.100750
     17 C24          4.6850     0.9730    -1.0760 c3         1 AKX      -0.105400
     18 C23          3.6500     1.4380    -0.0090 c3         1 AKX      -0.071400
     19 C22          2.2430     1.7040    -0.6020 c3         1 AKX      -0.076400
     20 C20          1.1110     1.9400     0.4480 c3         1 AKX      -0.046700
     21 C21          1.3530     3.2650     1.2180 c3         1 AKX      -0.086100
     22 C17         -0.3260     1.8790    -0.2440 c5         1 AKX      -0.053700
     23 C13         -1.6110     2.0850     0.6460 c5         1 AKX      -0.033000
     24 C18         -1.6130     1.1960     1.9350 c3         1 AKX      -0.078100
     25 C12         -1.9810     3.5680     1.0670 c6         1 AKX      -0.062400
     26 C11         -3.4510     3.7500     1.6190 c6         1 AKX      -0.071400
     27 C9          -4.5290     3.1710     0.6580 c6         1 AKX      -0.042200
     28 C16         -0.6230     0.4830    -0.9250 c5         1 AKX      -0.077400
     29 C15         -2.1710     0.2680    -0.8610 c5         1 AKX      -0.071400
     30 C14         -2.6860     1.6720    -0.4440 c5         1 AKX      -0.036500
     31 C8          -4.1600     1.7960     0.0780 c2         1 AKX      -0.080400
     32 C7          -5.0060     0.7420    -0.0940 ce         1 AKX      -0.188000
     33 C6          -6.4410     0.7240     0.2600 ce         1 AKX      -0.161000
     34 C5          -7.2630    -0.3570     0.2670 c2         1 AKX      -0.105400
     35 C10         -8.7410    -0.2270     0.6350 c6         1 AKX      -0.032200
     36 C1          -9.6810    -0.8470    -0.4330 c6         1 AKX       0.211500
     37 O1          -9.7210    -0.0370    -1.6090 oh         1 AKX      -0.654000
     38 C4          -6.8670    -1.8000    -0.0560 c6         1 AKX      -0.032200
     39 C3          -7.7580    -2.3810    -1.1800 c6         1 AKX       0.211500
     40 O2          -7.3910    -3.7400    -1.4350 oh         1 AKX      -0.654000
     41 C2          -9.2500    -2.2600    -0.8230 c2         1 AKX      -0.198400
     42 C40        -10.1340    -3.2800    -0.8410 c2         1 AKX      -0.298000
     43 H1           6.3490     1.8500     0.4940 ho         1 AKX       0.439000
     44 H2           6.7260     0.0620    -2.5930 hc         1 AKX       0.053200
     45 H3           7.3130     1.4800    -1.7690 hc         1 AKX       0.053200
     46 H4           7.9830    -2.0240    -2.5680 ha         1 AKX       0.111250
     47 H5          10.1180    -3.1890    -2.0670 ha         1 AKX       0.110500
     48 H6          11.7840    -2.1460    -0.5320 ha         1 AKX       0.111000
     49 H7          11.3060     0.0730     0.4980 ha         1 AKX       0.110500
     50 H8           9.1720     1.2450     0.0030 ha         1 AKX       0.111250
     51 H9           5.6330    -1.7950    -1.2350 hc         1 AKX       0.053200
     52 H10          6.6390    -1.6990     0.1840 hc         1 AKX       0.053200
     53 H11          3.2090    -2.0380    -1.0640 ha         1 AKX       0.111250
     54 H12          1.2470    -2.5610     0.3660 ha         1 AKX       0.110500
     55 H13          1.4430    -2.4530     2.8490 ha         1 AKX       0.111000
     56 H14          3.6170    -1.8280     3.8990 ha         1 AKX       0.110500
     57 H15          5.5850    -1.2970     2.4740 ha         1 AKX       0.111250
     58 H16          4.9700     1.8610    -1.6530 hc         1 AKX       0.040200
     59 H17          4.1910     0.3070    -1.7940 hc         1 AKX       0.040200
     60 H18          3.5520     0.7000     0.7910 hc         1 AKX       0.049700
     61 H19          4.0320     2.3490     0.4640 hc         1 AKX       0.049700
     62 H20          2.2930     2.5580    -1.2890 hc         1 AKX       0.034700
     63 H21          1.9850     0.8320    -1.2130 hc         1 AKX       0.034700
     64 H22          1.2400     1.1360     1.2060 hc         1 AKX       0.051700
     65 H23          0.7520     3.2940     2.1320 hc         1 AKX       0.032700
     66 H24          2.3930     3.3680     1.5420 hc         1 AKX       0.032700
     67 H25          1.1020     4.1330     0.5970 hc         1 AKX       0.032700
     68 H26         -0.3030     2.6540    -1.0200 hc         1 AKX       0.042700
     69 H27         -0.9770     1.6310     2.7150 hc         1 AKX       0.034700
     70 H28         -2.6200     1.0910     2.3550 hc         1 AKX       0.034700
     71 H29         -1.2350     0.1840     1.7550 hc         1 AKX       0.034700
     72 H30         -1.2900     3.9440     1.8280 hc         1 AKX       0.039700
     73 H31         -1.8510     4.2290     0.1980 hc         1 AKX       0.039700
     74 H32         -3.5370     3.2550     2.5950 hc         1 AKX       0.039700
     75 H33         -3.6510     4.8140     1.8020 hc         1 AKX       0.039700
     76 H34         -5.4830     3.1460     1.1960 hc         1 AKX       0.046200
     77 H35         -4.6700     3.8700    -0.1780 hc         1 AKX       0.046200
     78 H36         -0.2670     0.4720    -1.9620 hc         1 AKX       0.040200
     79 H37         -0.1060    -0.3370    -0.4130 hc         1 AKX       0.040200
     80 H38         -2.5800    -0.0520    -1.8270 hc         1 AKX       0.044700
     81 H39         -2.4260    -0.5070    -0.1300 hc         1 AKX       0.044700
     82 H40         -2.6100     2.3400    -1.3130 hc         1 AKX       0.051700
     83 H41         -4.6390    -0.1670    -0.5570 ha         1 AKX       0.172000
     84 H42         -6.8780     1.6860     0.5220 ha         1 AKX       0.169000
     85 H43         -8.9110    -0.7370     1.5930 hc         1 AKX       0.057950
     86 H44         -9.0170     0.8230     0.8020 hc         1 AKX       0.057950
     87 H45        -10.6900    -0.8910     0.0050 h1         1 AKX       0.042200
     88 H46        -10.2550    -0.5400    -2.2600 ho         1 AKX       0.441500
     89 H47         -5.8160    -1.8950    -0.3440 hc         1 AKX       0.057950
     90 H48         -6.9830    -2.4110     0.8500 hc         1 AKX       0.057950
     91 H49         -7.5770    -1.7840    -2.0870 h1         1 AKX       0.042200
     92 H50         -7.9710    -4.0390    -2.1670 ho         1 AKX       0.441500
     93 H51        -11.1820    -3.1290    -0.5770 ha         1 AKX       0.167500
     94 H52         -9.8590    -4.3010    -1.1050 ha         1 AKX       0.167500
@<TRIPOS>BOND
     1     1     2 1   
     2     1    43 1   
     3     2     3 1   
     4     2    10 1   
     5     2    17 1   
     6     3     4 1   
     7     3    44 1   
     8     3    45 1   
     9     4     5 ar  
    10     4     9 ar  
    11     5     6 ar  
    12     5    46 1   
    13     6     7 ar  
    14     6    47 1   
    15     7     8 ar  
    16     7    48 1   
    17     8     9 ar  
    18     8    49 1   
    19     9    50 1   
    20    10    11 1   
    21    10    51 1   
    22    10    52 1   
    23    11    12 ar  
    24    11    16 ar  
    25    12    13 ar  
    26    12    53 1   
    27    13    14 ar  
    28    13    54 1   
    29    14    15 ar  
    30    14    55 1   
    31    15    16 ar  
    32    15    56 1   
    33    16    57 1   
    34    17    18 1   
    35    17    58 1   
    36    17    59 1   
    37    18    19 1   
    38    18    60 1   
    39    18    61 1   
    40    19    20 1   
    41    19    62 1   
    42    19    63 1   
    43    20    21 1   
    44    20    22 1   
    45    20    64 1   
    46    21    65 1   
    47    21    66 1   
    48    21    67 1   
    49    22    23 1   
    50    22    28 1   
    51    22    68 1   
    52    23    24 1   
    53    23    25 1   
    54    23    30 1   
    55    24    69 1   
    56    24    70 1   
    57    24    71 1   
    58    25    26 1   
    59    25    72 1   
    60    25    73 1   
    61    26    27 1   
    62    26    74 1   
    63    26    75 1   
    64    27    31 1   
    65    27    76 1   
    66    27    77 1   
    67    28    29 1   
    68    28    78 1   
    69    28    79 1   
    70    29    30 1   
    71    29    80 1   
    72    29    81 1   
    73    30    31 1   
    74    30    82 1   
    75    31    32 2   
    76    32    33 1   
    77    32    83 1   
    78    33    34 2   
    79    33    84 1   
    80    34    35 1   
    81    34    38 1   
    82    35    36 1   
    83    35    85 1   
    84    35    86 1   
    85    36    37 1   
    86    36    41 1   
    87    36    87 1   
    88    37    88 1   
    89    38    39 1   
    90    38    89 1   
    91    38    90 1   
    92    39    40 1   
    93    39    41 1   
    94    39    91 1   
    95    40    92 1   
    96    41    42 2   
    97    42    93 1   
    98    42    94 1   
@<TRIPOS>SUBSTRUCTURE
     1 AKX         1 TEMP              0 ****  ****    0 ROOT
