@<TRIPOS>MOLECULE
AKY
  111   117     1     0     0
SMALL
No Charge or Current Charge


@<TRIPOS>ATOM
      1 O15          4.0410     6.0550     2.4120 o          1 AKY      -0.507100
      2 C42          4.5020     4.9960     2.0010 c          1 AKY       0.542100
      3 C40          4.9570     4.8150     0.5470 c6         1 AKY      -0.178400
      4 C38          4.1520     3.6730    -0.1580 c6         1 AKY      -0.087400
      5 C39          4.4360     3.6710     2.8170 c6         1 AKY       0.074300
      6 C41          5.7880     3.3600     3.5060 c3         1 AKY      -0.084100
      7 O14          4.1060     2.5180     1.9920 os         1 AKY      -0.497000
      8 C37          3.3160     2.8070     0.8270 c6         1 AKY       0.391300
      9 O13          2.9610     1.5680     0.2010 os         1 AKY      -0.439000
     10 C35          1.9610     0.7610     0.8840 c6         1 AKY       0.107300
     11 C34          0.9000     0.2110    -0.1180 c6         1 AKY       0.171300
     12 C36          0.2820     1.3060    -1.0230 c3         1 AKY      -0.086100
     13 O11          1.4840    -0.7850    -0.9910 os         1 AKY      -0.475000
     14 C33          2.6010    -0.4360     1.6600 c6         1 AKY       0.165300
     15 O12          3.6740    -0.0100     2.5110 oh         1 AKY      -0.724000
     16 C32          3.1250    -1.5000     0.6670 c6         1 AKY      -0.123400
     17 C31          2.0190    -1.9420    -0.3160 c6         1 AKY       0.388300
     18 O7          -3.5230    -3.9330    -0.1380 os         1 AKY      -0.524000
     19 C7          -4.9060    -3.5140    -0.2560 c6         1 AKY       0.230600
     20 C8          -5.0270    -2.2760    -1.1750 c6         1 AKY      -0.097400
     21 C9          -6.5000    -1.8660    -1.3920 c6         1 AKY       0.207000
     22 O9          -6.5150    -0.7100    -2.2340 oh         1 AKY      -0.652000
     23 C13         -7.2170    -1.4740    -0.0470 c3         1 AKY      -0.113400
     24 C14         -6.5160    -0.4060     0.8280 c3         1 AKY      -0.086100
     25 C20         -5.7650    -4.7040    -0.7620 ca         1 AKY      -0.175300
     26 C19         -6.8560    -4.4650    -1.6340 ca         1 AKY       0.006700
     27 C10         -7.2250    -3.0410    -2.1180 c6         1 AKY      -0.119400
     28 C11         -7.5770    -5.5610    -2.1380 ca         1 AKY      -0.106000
     29 C18         -7.3110    -6.8840    -1.7330 ca         1 AKY      -0.081600
     30 C17         -6.2750    -7.1330    -0.7990 ca         1 AKY      -0.189600
     31 C6          -5.4970    -6.0340    -0.3450 ca         1 AKY       0.231100
     32 O6          -4.4330    -6.2300     0.4760 oh         1 AKY      -0.521100
     33 C12         -8.1420    -8.0030    -2.3180 c          1 AKY       0.588300
     34 O3          -9.0810    -7.7700    -3.0730 o          1 AKY      -0.507100
     35 C15         -7.7770    -9.4210    -1.9500 ca         1 AKY      -0.086600
     36 C1          -8.4680   -10.4930    -2.5620 ca         1 AKY      -0.113000
     37 C2          -8.1580   -11.8220    -2.2470 ca         1 AKY      -0.055000
     38 C3          -7.1540   -12.0960    -1.3120 ca         1 AKY      -0.152000
     39 C16         -6.7570    -9.6960    -1.0010 ca         1 AKY      -0.257600
     40 C5          -6.0140    -8.5580    -0.3300 c          1 AKY       0.622300
     41 O5          -5.2510    -8.8190     0.5940 o          1 AKY      -0.552100
     42 C4          -6.4610   -11.0490    -0.6910 ca         1 AKY       0.213100
     43 O4          -5.4990   -11.3750     0.2150 oh         1 AKY      -0.546100
     44 O18          0.9710    -2.6240     0.3990 os         1 AKY      -0.469000
     45 C45         -2.6360    -3.0240     0.5450 c6         1 AKY       0.393300
     46 C43         -8.7450    -2.7850    -2.2090 c          1 AKY       0.588100
     47 O16         -9.5760    -3.4010    -1.5560 o          1 AKY      -0.463000
     48 O17         -9.0560    -1.7350    -3.0370 os         1 AKY      -0.455100
     49 C44        -10.4430    -1.3760    -3.1880 c3         1 AKY       0.149900
     50 O19         -1.9500    -2.1760    -0.4020 os         1 AKY      -0.455000
     51 C47         -0.5720    -4.5660     0.5900 c6         1 AKY       0.185500
     52 N11          0.3900    -5.3450     1.4600 n3         1 AKY      -0.701600
     53 C52          1.4820    -6.0020     0.6990 c3         1 AKY       0.146100
     54 C51         -0.2660    -6.3170     2.3720 c3         1 AKY       0.146100
     55 C46         -1.6360    -3.7980     1.4290 c6         1 AKY      -0.107400
     56 C48          0.1370    -3.5380    -0.3700 c6         1 AKY       0.153300
     57 C49         -0.9280    -2.7880    -1.2360 c6         1 AKY       0.150300
     58 C50         -1.5740    -3.6650    -2.3500 c3         1 AKY      -0.115100
     59 H141        -5.5620    -0.7750     1.2210 hc         1 AKY       0.037700
     60 H142        -6.3270     0.5100     0.2550 hc         1 AKY       0.037700
     61 H143        -7.1490    -0.1440     1.6840 hc         1 AKY       0.037700
     62 H131        -7.3790    -2.3680     0.5690 hc         1 AKY       0.053200
     63 H132        -8.2210    -1.0890    -0.2610 hc         1 AKY       0.053200
     64 HO9         -7.4180    -0.6620    -2.6230 ho         1 AKY       0.457000
     65 H81         -4.4630    -1.4300    -0.7650 hc         1 AKY       0.078200
     66 H82         -4.5650    -2.5030    -2.1440 hc         1 AKY       0.078200
     67 H7          -5.2630    -3.2540     0.7510 h1         1 AKY       0.051700
     68 H45         -3.2330    -2.3850     1.2150 h2         1 AKY       0.071700
     69 H461        -2.2150    -4.4810     2.0600 hc         1 AKY       0.075200
     70 H462        -1.1370    -3.0960     2.1080 hc         1 AKY       0.075200
     71 H47         -1.1100    -5.2890    -0.0410 h1         1 AKY       0.039700
     72 H48          0.7860    -4.0960    -1.0590 h1         1 AKY       0.050700
     73 H31          2.4650    -2.6250    -1.0560 h2         1 AKY       0.066700
     74 H321         3.9730    -1.1000     0.0960 hc         1 AKY       0.074200
     75 H322         3.4990    -2.3760     1.2130 hc         1 AKY       0.074200
     76 H33          1.8090    -0.9020     2.2680 h1         1 AKY       0.081700
     77 H12          3.8820     0.9270     2.2310 ho         1 AKY       0.527000
     78 H35          1.4270     1.3970     1.6060 h1         1 AKY       0.053700
     79 H37          2.4060     3.3530     1.1190 h2         1 AKY       0.024700
     80 H381         3.4650     4.1130    -0.8930 hc         1 AKY       0.066700
     81 H382         4.8370     3.0310    -0.7300 hc         1 AKY       0.066700
     82 H401         4.9160     5.7650    -0.0030 hc         1 AKY       0.076700
     83 H402         5.9910     4.4500     0.5950 hc         1 AKY       0.076700
     84 H39          3.6530     3.8000     3.5780 h1         1 AKY       0.061700
     85 H411         6.0860     4.1770     4.1740 hc         1 AKY       0.055033
     86 H412         5.7190     2.4470     4.1090 hc         1 AKY       0.055033
     87 H413         6.5890     3.2180     2.7710 hc         1 AKY       0.055033
     88 H34          0.0800    -0.2510     0.4510 h1         1 AKY       0.057700
     89 H361         1.0370     1.7670    -1.6710 hc         1 AKY       0.045700
     90 H362        -0.5000     0.8850    -1.6650 hc         1 AKY       0.045700
     91 H363        -0.1750     2.1000    -0.4210 hc         1 AKY       0.045700
     92 H49         -0.4310    -1.9740    -1.7770 h1         1 AKY       0.084700
     93 H501        -1.9820    -4.6090    -1.9770 hc         1 AKY       0.047033
     94 H502        -2.3770    -3.1230    -2.8600 hc         1 AKY       0.047033
     95 H503        -0.8270    -3.9230    -3.1090 hc         1 AKY       0.047033
     96 H521         2.1190    -5.2640     0.1940 h1         1 AKY       0.033200
     97 H522         1.0770    -6.6900    -0.0550 h1         1 AKY       0.033200
     98 H523         2.1330    -6.5770     1.3720 h1         1 AKY       0.033200
     99 H511         0.4830    -6.8980     2.9250 h1         1 AKY       0.033200
    100 H512        -0.8960    -7.0190     1.8090 h1         1 AKY       0.033200
    101 H513        -0.8880    -5.8110     3.1210 h1         1 AKY       0.033200
    102 HO6         -3.8940    -5.4040     0.3780 ho         1 AKY       0.504000
    103 HO4         -5.1710   -10.5150     0.5840 ho         1 AKY       0.520000
    104 H3          -6.9130   -13.1260    -1.0640 ha         1 AKY       0.134000
    105 H2          -8.6970   -12.6380    -2.7270 ha         1 AKY       0.121000
    106 H1          -9.2520   -10.2990    -3.2920 ha         1 AKY       0.139000
    107 H11         -8.3700    -5.3810    -2.8620 ha         1 AKY       0.143000
    108 H10         -6.8790    -2.9470    -3.1570 hc         1 AKY       0.105700
    109 H441       -10.5460    -0.5290    -3.8780 h1         1 AKY       0.052367
    110 H442       -10.8790    -1.0840    -2.2240 h1         1 AKY       0.052367
    111 H443       -11.0230    -2.2160    -3.5920 h1         1 AKY       0.052367
@<TRIPOS>BOND
     1     1     2 2   
     2     2     3 1   
     3     2     5 1   
     4     3     4 1   
     5     3    82 1   
     6     3    83 1   
     7     4     8 1   
     8     4    80 1   
     9     4    81 1   
    10     5     6 1   
    11     5     7 1   
    12     5    84 1   
    13     6    85 1   
    14     6    86 1   
    15     6    87 1   
    16     7     8 1   
    17     8     9 1   
    18     8    79 1   
    19     9    10 1   
    20    10    11 1   
    21    10    14 1   
    22    10    78 1   
    23    11    12 1   
    24    11    13 1   
    25    11    88 1   
    26    12    89 1   
    27    12    90 1   
    28    12    91 1   
    29    13    17 1   
    30    14    15 1   
    31    14    16 1   
    32    14    76 1   
    33    15    77 1   
    34    16    17 1   
    35    16    74 1   
    36    16    75 1   
    37    17    44 1   
    38    17    73 1   
    39    18    19 1   
    40    18    45 1   
    41    19    20 1   
    42    19    25 1   
    43    19    67 1   
    44    20    21 1   
    45    20    65 1   
    46    20    66 1   
    47    21    22 1   
    48    21    23 1   
    49    21    27 1   
    50    22    64 1   
    51    23    24 1   
    52    23    62 1   
    53    23    63 1   
    54    24    59 1   
    55    24    60 1   
    56    24    61 1   
    57    25    26 ar  
    58    25    31 ar  
    59    26    27 1   
    60    26    28 ar  
    61    27    46 1   
    62    27   108 1   
    63    28    29 ar  
    64    28   107 1   
    65    29    30 ar  
    66    29    33 1   
    67    30    31 ar  
    68    30    40 1   
    69    31    32 1   
    70    32   102 1   
    71    33    34 2   
    72    33    35 1   
    73    35    36 ar  
    74    35    39 ar  
    75    36    37 ar  
    76    36   106 1   
    77    37    38 ar  
    78    37   105 1   
    79    38    42 ar  
    80    38   104 1   
    81    39    40 1   
    82    39    42 ar  
    83    40    41 2   
    84    42    43 1   
    85    43   103 1   
    86    44    56 1   
    87    45    50 1   
    88    45    55 1   
    89    45    68 1   
    90    46    47 2   
    91    46    48 1   
    92    48    49 1   
    93    49   109 1   
    94    49   110 1   
    95    49   111 1   
    96    50    57 1   
    97    51    52 1   
    98    51    55 1   
    99    51    56 1   
   100    51    71 1   
   101    52    53 1   
   102    52    54 1   
   103    53    96 1   
   104    53    97 1   
   105    53    98 1   
   106    54    99 1   
   107    54   100 1   
   108    54   101 1   
   109    55    69 1   
   110    55    70 1   
   111    56    57 1   
   112    56    72 1   
   113    57    58 1   
   114    57    92 1   
   115    58    93 1   
   116    58    94 1   
   117    58    95 1   
@<TRIPOS>SUBSTRUCTURE
     1 AKY         1 TEMP              0 ****  ****    0 ROOT
