@<TRIPOS>MOLECULE
AKY
  111   117     1     0     0
SMALL
abcg2


@<TRIPOS>ATOM
      1 O15          5.7200     5.5360     2.1510 o          1 AKY      -0.507100
      2 C42          5.4210     4.4170     1.8040 c          1 AKY       0.542100
      3 C40          5.8060     3.8040     0.4890 c6         1 AKY      -0.178400
      4 C38          4.6210     3.1080    -0.1990 c6         1 AKY      -0.087400
      5 C39          4.6360     3.4930     2.7270 c6         1 AKY       0.074300
      6 C41          5.4550     3.1410     3.9560 c3         1 AKY      -0.084100
      7 O14          4.3050     2.3000     2.0450 os         1 AKY      -0.497000
      8 C37          3.6260     2.5660     0.8240 c6         1 AKY       0.391300
      9 O13          3.0810     1.3940     0.3590 os         1 AKY      -0.439000
     10 C35          1.7980     1.0070     0.8390 c6         1 AKY       0.107300
     11 C34          1.0040     0.4570    -0.3430 c6         1 AKY       0.171300
     12 C36          0.8480     1.4490    -1.4760 c3         1 AKY      -0.086100
     13 O11          1.6370    -0.7020    -0.8690 os         1 AKY      -0.475000
     14 C33          1.9030    -0.0830     1.9070 c6         1 AKY       0.165300
     15 O12          2.5410     0.3300     3.0890 oh         1 AKY      -0.724000
     16 C32          2.5460    -1.3220     1.2910 c6         1 AKY      -0.123400
     17 C31          1.8000    -1.7610     0.0370 c6         1 AKY       0.388300
     18 O7          -3.6290    -3.7720    -0.2210 os         1 AKY      -0.524000
     19 C7          -5.0150    -3.4560    -0.3110 c6         1 AKY       0.230600
     20 C8          -5.2550    -2.2720    -1.2270 c6         1 AKY      -0.097400
     21 C9          -6.7400    -1.9740    -1.3770 c6         1 AKY       0.207000
     22 O9          -6.8040    -0.8320    -2.1980 oh         1 AKY      -0.652000
     23 C13         -7.4150    -1.7070    -0.0210 c3         1 AKY      -0.113400
     24 C14         -6.7350    -0.6350     0.8200 c3         1 AKY      -0.086100
     25 C20         -5.7530    -4.6840    -0.8100 ca         1 AKY      -0.175300
     26 C19         -6.8640    -4.5430    -1.6300 ca         1 AKY       0.006700
     27 C10         -7.3740    -3.1990    -2.1030 c6         1 AKY      -0.119400
     28 C11         -7.5150    -5.6820    -2.1050 ca         1 AKY      -0.106000
     29 C18         -7.1200    -6.9430    -1.7230 ca         1 AKY      -0.081600
     30 C17         -6.0380    -7.1200    -0.8440 ca         1 AKY      -0.189600
     31 C6          -5.3430    -5.9800    -0.4060 ca         1 AKY       0.231100
     32 O6          -4.3010    -6.1300     0.4010 oh         1 AKY      -0.521100
     33 C12         -7.8740    -8.0970    -2.2740 c          1 AKY       0.588300
     34 O3          -8.7860    -7.9290    -3.0570 o          1 AKY      -0.507100
     35 C15         -7.4800    -9.4540    -1.8380 ca         1 AKY      -0.086600
     36 C1          -8.1860   -10.5420    -2.3180 ca         1 AKY      -0.113000
     37 C2          -7.8270   -11.8230    -1.9100 ca         1 AKY      -0.055000
     38 C3          -6.7770   -12.0180    -1.0390 ca         1 AKY      -0.152000
     39 C16         -6.4070    -9.6220    -0.9490 ca         1 AKY      -0.257600
     40 C5          -5.6520    -8.4750    -0.4220 c          1 AKY       0.622300
     41 O5          -4.7230    -8.6750     0.3590 o          1 AKY      -0.552100
     42 C4          -6.0530   -10.9260    -0.5470 ca         1 AKY       0.213100
     43 O4          -5.0520   -11.1760     0.2870 oh         1 AKY      -0.546100
     44 O18          0.5810    -2.3050     0.4420 os         1 AKY      -0.469000
     45 C45         -2.7990    -2.8540     0.4880 c6         1 AKY       0.393300
     46 C43         -8.8890    -3.1250    -2.0110 c          1 AKY       0.588100
     47 O16         -9.5760    -3.7840    -1.2770 o          1 AKY      -0.463000
     48 O17         -9.3650    -2.1870    -2.8190 os         1 AKY      -0.455100
     49 C44        -10.7740    -1.9360    -2.7830 c3         1 AKY       0.149900
     50 O19         -2.2400    -1.9170    -0.3630 os         1 AKY      -0.455000
     51 C47         -0.7290    -4.2810     0.3120 c6         1 AKY       0.185500
     52 N11          0.2550    -5.0680     1.0440 n3         1 AKY      -0.701600
     53 C52          1.3320    -5.5420     0.1960 c3         1 AKY       0.146100
     54 C51         -0.3650    -6.1950     1.7160 c3         1 AKY       0.146100
     55 C46         -1.7640    -3.6620     1.2510 c6         1 AKY      -0.107400
     56 C48         -0.1080    -3.1240    -0.4790 c6         1 AKY       0.153300
     57 C49         -1.1920    -2.3430    -1.2300 c6         1 AKY       0.150300
     58 C50         -1.6910    -3.0710    -2.4720 c3         1 AKY      -0.115100
     59 H141        -5.7560    -0.9490     1.1860 hc         1 AKY       0.037700
     60 H142        -6.6000     0.2890     0.2590 hc         1 AKY       0.037700
     61 H143        -7.3410    -0.4060     1.6960 hc         1 AKY       0.037700
     62 H131        -7.4860    -2.6340     0.5540 hc         1 AKY       0.053200
     63 H132        -8.4510    -1.3950    -0.1930 hc         1 AKY       0.053200
     64 HO9         -7.7220    -0.5590    -2.3000 ho         1 AKY       0.457000
     65 H81         -4.7470    -1.3870    -0.8430 hc         1 AKY       0.078200
     66 H82         -4.8270    -2.4860    -2.2110 hc         1 AKY       0.078200
     67 H7          -5.3770    -3.2280     0.7030 h1         1 AKY       0.051700
     68 H45         -3.4200    -2.2890     1.1930 h2         1 AKY       0.071700
     69 H461        -2.2900    -4.4010     1.8560 hc         1 AKY       0.075200
     70 H462        -1.2580    -3.0000     1.9570 hc         1 AKY       0.075200
     71 H47         -1.2430    -4.9320    -0.4190 h1         1 AKY       0.039700
     72 H48          0.5820    -3.5090    -1.2410 h1         1 AKY       0.050700
     73 H31          2.3880    -2.5070    -0.5140 h2         1 AKY       0.066700
     74 H321         3.5840    -1.1090     1.0240 hc         1 AKY       0.074200
     75 H322         2.5590    -2.1450     2.0080 hc         1 AKY       0.074200
     76 H33          0.8760    -0.3260     2.1970 h1         1 AKY       0.081700
     77 H12          3.3470     0.8150     2.8620 ho         1 AKY       0.527000
     78 H35          1.2640     1.8770     1.2460 h1         1 AKY       0.053700
     79 H37          2.8410     3.3140     1.0260 h2         1 AKY       0.024700
     80 H381         4.1050     3.8010    -0.8650 hc         1 AKY       0.066700
     81 H382         4.9970     2.2880    -0.8120 hc         1 AKY       0.066700
     82 H401         6.2650     4.5510    -0.1580 hc         1 AKY       0.076700
     83 H402         6.5760     3.0570     0.7130 hc         1 AKY       0.076700
     84 H39          3.7220     4.0230     3.0340 h1         1 AKY       0.061700
     85 H411         5.7060     4.0450     4.5080 hc         1 AKY       0.055033
     86 H412         4.8830     2.4900     4.6180 hc         1 AKY       0.055033
     87 H413         6.3810     2.6340     3.6840 hc         1 AKY       0.055033
     88 H34          0.0060     0.2040     0.0390 h1         1 AKY       0.057700
     89 H361         1.8100     1.7420    -1.8960 hc         1 AKY       0.045700
     90 H362         0.2390     1.0270    -2.2750 hc         1 AKY       0.045700
     91 H363         0.3440     2.3480    -1.1180 hc         1 AKY       0.045700
     92 H49         -0.7420    -1.4110    -1.5740 h1         1 AKY       0.084700
     93 H501        -2.0610    -4.0760    -2.2800 hc         1 AKY       0.047033
     94 H502        -2.4920    -2.5020    -2.9420 hc         1 AKY       0.047033
     95 H503        -0.8750    -3.1470    -3.1920 hc         1 AKY       0.047033
     96 H521         1.9520    -4.7230    -0.1670 h1         1 AKY       0.033200
     97 H522         0.9830    -6.1140    -0.6780 h1         1 AKY       0.033200
     98 H523         1.9860    -6.1930     0.7750 h1         1 AKY       0.033200
     99 H511         0.4050    -6.8040     2.1880 h1         1 AKY       0.033200
    100 H512        -0.9350    -6.8460     1.0340 h1         1 AKY       0.033200
    101 H513        -1.0390    -5.8720     2.5080 h1         1 AKY       0.033200
    102 HO6         -3.8030    -5.2840     0.3920 ho         1 AKY       0.504000
    103 HO4         -4.6570   -10.3050     0.5340 ho         1 AKY       0.520000
    104 H3          -6.4990   -13.0150    -0.7240 ha         1 AKY       0.134000
    105 H2          -8.3780   -12.6780    -2.2780 ha         1 AKY       0.121000
    106 H1          -9.0110   -10.4000    -3.0010 ha         1 AKY       0.139000
    107 H11         -8.3410    -5.5850    -2.7940 ha         1 AKY       0.143000
    108 H10         -7.0900    -3.1030    -3.1580 hc         1 AKY       0.105700
    109 H441       -10.9490    -1.1300    -3.4890 h1         1 AKY       0.052367
    110 H442       -11.0970    -1.6270    -1.7900 h1         1 AKY       0.052367
    111 H443       -11.3360    -2.8170    -3.0900 h1         1 AKY       0.052367
@<TRIPOS>BOND
     1     1     2 2   
     2     2     3 1   
     3     2     5 1   
     4     3     4 1   
     5     3    82 1   
     6     3    83 1   
     7     4     8 1   
     8     4    80 1   
     9     4    81 1   
    10     5     6 1   
    11     5     7 1   
    12     5    84 1   
    13     6    85 1   
    14     6    86 1   
    15     6    87 1   
    16     7     8 1   
    17     8     9 1   
    18     8    79 1   
    19     9    10 1   
    20    10    11 1   
    21    10    14 1   
    22    10    78 1   
    23    11    12 1   
    24    11    13 1   
    25    11    88 1   
    26    12    89 1   
    27    12    90 1   
    28    12    91 1   
    29    13    17 1   
    30    14    15 1   
    31    14    16 1   
    32    14    76 1   
    33    15    77 1   
    34    16    17 1   
    35    16    74 1   
    36    16    75 1   
    37    17    44 1   
    38    17    73 1   
    39    18    19 1   
    40    18    45 1   
    41    19    20 1   
    42    19    25 1   
    43    19    67 1   
    44    20    21 1   
    45    20    65 1   
    46    20    66 1   
    47    21    22 1   
    48    21    23 1   
    49    21    27 1   
    50    22    64 1   
    51    23    24 1   
    52    23    62 1   
    53    23    63 1   
    54    24    59 1   
    55    24    60 1   
    56    24    61 1   
    57    25    26 ar  
    58    25    31 ar  
    59    26    27 1   
    60    26    28 ar  
    61    27    46 1   
    62    27   108 1   
    63    28    29 ar  
    64    28   107 1   
    65    29    30 ar  
    66    29    33 1   
    67    30    31 ar  
    68    30    40 1   
    69    31    32 1   
    70    32   102 1   
    71    33    34 2   
    72    33    35 1   
    73    35    36 ar  
    74    35    39 ar  
    75    36    37 ar  
    76    36   106 1   
    77    37    38 ar  
    78    37   105 1   
    79    38    42 ar  
    80    38   104 1   
    81    39    40 1   
    82    39    42 ar  
    83    40    41 2   
    84    42    43 1   
    85    43   103 1   
    86    44    56 1   
    87    45    50 1   
    88    45    55 1   
    89    45    68 1   
    90    46    47 2   
    91    46    48 1   
    92    48    49 1   
    93    49   109 1   
    94    49   110 1   
    95    49   111 1   
    96    50    57 1   
    97    51    52 1   
    98    51    55 1   
    99    51    56 1   
   100    51    71 1   
   101    52    53 1   
   102    52    54 1   
   103    53    96 1   
   104    53    97 1   
   105    53    98 1   
   106    54    99 1   
   107    54   100 1   
   108    54   101 1   
   109    55    69 1   
   110    55    70 1   
   111    56    57 1   
   112    56    72 1   
   113    57    58 1   
   114    57    92 1   
   115    58    93 1   
   116    58    94 1   
   117    58    95 1   
@<TRIPOS>SUBSTRUCTURE
     1 AKY         1 TEMP              0 ****  ****    0 ROOT
