@<TRIPOS>MOLECULE
AKZ
   17    16     1     0     0
SMALL
bcc


@<TRIPOS>ATOM
      1 C           34.8430    33.8500    31.6530 c3         1 AKZ       0.337900
      2 N           35.9530    32.6120    29.9410 n8         1 AKZ      -0.925800
      3 O           33.6450    34.0520    32.3230 oh         1 AKZ      -0.618800
      4 CA          34.6200    32.9140    30.4570 c3         1 AKZ       0.156500
      5 CB          33.9090    31.6210    30.8370 c3         1 AKZ      -0.210400
      6 CG          33.5920    30.6480    29.6790 c          1 AKZ       0.928600
      7 OD1         34.0490    30.9080    28.5440 o          1 AKZ      -0.849800
      8 OD2         32.9000    29.6590    29.9860 o          1 AKZ      -0.849800
      9 HA          34.0000    33.4560    29.7300 h1         1 AKZ       0.033700
     10 HB2         34.5090    31.0780    31.5760 hc         1 AKZ       0.043200
     11 HB3         32.9680    31.8550    31.3410 hc         1 AKZ       0.043200
     12 HO          33.7250    34.8270    32.8880 ho         1 AKZ       0.420000
     13 H1          35.2180    34.8150    31.2650 h2         1 AKZ      -0.018300
     14 OXT         35.7980    33.3030    32.5230 oh         1 AKZ      -0.618800
     15 HXT         36.3830    32.7890    31.9400 ho         1 AKZ       0.420000
     16 H           35.8400    31.9160    29.2140 hn         1 AKZ       0.354300
     17 H2          36.3440    33.4320    29.4910 hn         1 AKZ       0.354300
@<TRIPOS>BOND
     1     1     3 1   
     2     1     4 1   
     3     1    13 1   
     4     1    14 1   
     5     2     4 1   
     6     2    16 1   
     7     2    17 1   
     8     3    12 1   
     9     4     5 1   
    10     4     9 1   
    11     5     6 1   
    12     5    10 1   
    13     5    11 1   
    14     6     7 1   
    15     6     8 1   
    16    14    15 1   
@<TRIPOS>SUBSTRUCTURE
     1 AKZ         1 TEMP              0 ****  ****    0 ROOT
