@<TRIPOS>MOLECULE
AKZ
   17    16     1     0     0
SMALL
No Charge or Current Charge


@<TRIPOS>ATOM
      1 C           34.7560    33.9070    31.6430 c3         1 AKZ       0.337900
      2 N           35.9100    32.8160    29.6600 n8         1 AKZ      -0.925800
      3 O           33.5420    34.0010    32.3650 oh         1 AKZ      -0.618800
      4 CA          34.6620    32.8540    30.4650 c3         1 AKZ       0.156500
      5 CB          34.3070    31.4100    30.9170 c3         1 AKZ      -0.210400
      6 CG          33.6300    30.6550    29.7680 c          1 AKZ       0.928600
      7 OD1         34.3280    30.0110    28.9950 o          1 AKZ      -0.849800
      8 OD2         32.4160    30.7490    29.6430 o          1 AKZ      -0.849800
      9 HA          33.8610    33.2030    29.7990 h1         1 AKZ       0.033700
     10 HB2         35.2410    30.9150    31.2100 hc         1 AKZ       0.043200
     11 HB3         33.5900    31.5020    31.7400 hc         1 AKZ       0.043200
     12 HO          33.5910    34.8490    32.8510 ho         1 AKZ       0.420000
     13 H1          34.9950    34.8990    31.2450 h2         1 AKZ      -0.018300
     14 OXT         35.7520    33.5400    32.5790 oh         1 AKZ      -0.618800
     15 HXT         35.8940    32.5830    32.4290 ho         1 AKZ       0.420000
     16 H           35.7980    32.1280    28.9070 hn         1 AKZ       0.354300
     17 H2          36.0240    33.7110    29.1720 hn         1 AKZ       0.354300
@<TRIPOS>BOND
     1     1     3 1   
     2     1     4 1   
     3     1    13 1   
     4     1    14 1   
     5     2     4 1   
     6     2    16 1   
     7     2    17 1   
     8     3    12 1   
     9     4     5 1   
    10     4     9 1   
    11     5     6 1   
    12     5    10 1   
    13     5    11 1   
    14     6     7 1   
    15     6     8 1   
    16    14    15 1   
@<TRIPOS>SUBSTRUCTURE
     1 AKZ         1 TEMP              0 ****  ****    0 ROOT
