@<TRIPOS>MOLECULE
AL0
   16    15     1     0     0
SMALL
No Charge or Current Charge


@<TRIPOS>ATOM
      1 N            0.5740     1.2420     1.2870 n8         1 AL0      -0.981200
      2 CA           0.8110    -0.0140     0.4580 c3         1 AL0       0.003500
      3 C            2.2910    -0.2700    -0.0120 c          1 AL0       0.726000
      4 O            2.7940     0.5150    -0.8050 o          1 AL0      -0.713500
      5 CB          -0.1170    -0.1040    -0.7900 c3         1 AL0       0.201800
      6 NG          -1.5710    -0.0480    -0.4990 nh         1 AL0      -0.240200
      7 OD1         -2.3510     0.8930    -1.2410 oh         1 AL0      -0.435300
      8 ND2         -2.1530    -0.9800     0.3140 n2         1 AL0       0.095600
      9 OE          -3.3600    -0.8810     0.4720 o          1 AL0      -0.410300
     10 OXT          2.8950    -1.2220     0.4650 o          1 AL0      -0.713500
     11 HN1          0.8380     2.0690     0.7370 hn         1 AL0       0.384500
     12 HN2         -0.4340     1.3590     1.4480 hn         1 AL0       0.384500
     13 HA           0.5530    -0.8650     1.1030 h1         1 AL0       0.056700
     14 HB1          0.1480     0.7050    -1.4840 h1         1 AL0       0.081200
     15 HB2          0.0980    -1.0450    -1.3120 h1         1 AL0       0.081200
     16 HD1         -2.4730     1.6020    -0.5690 ho         1 AL0       0.481000
@<TRIPOS>BOND
     1     1     2 1   
     2     1    11 1   
     3     1    12 1   
     4     2     3 1   
     5     2     5 1   
     6     2    13 1   
     7     3     4 1   
     8     3    10 1   
     9     5     6 1   
    10     5    14 1   
    11     5    15 1   
    12     6     7 1   
    13     6     8 1   
    14     7    16 1   
    15     8     9 2   
@<TRIPOS>SUBSTRUCTURE
     1 AL0         1 TEMP              0 ****  ****    0 ROOT
