@<TRIPOS>MOLECULE
AL0
   16    15     1     0     0
SMALL
abcg2


@<TRIPOS>ATOM
      1 N            0.7690     1.5610     0.8490 n8         1 AL0      -0.981200
      2 CA           0.8090     0.1730     0.4490 c3         1 AL0       0.003500
      3 C            2.2450    -0.2720     0.0490 c          1 AL0       0.726000
      4 O            3.1230     0.6050    -0.0010 o          1 AL0      -0.713500
      5 CB          -0.1180    -0.2220    -0.7140 c3         1 AL0       0.201800
      6 NG          -1.5280    -0.1200    -0.4080 nh         1 AL0      -0.240200
      7 OD1         -2.0850     1.1090    -0.3640 oh         1 AL0      -0.435300
      8 ND2         -2.2370    -1.1300    -0.0950 n2         1 AL0       0.095600
      9 OE          -3.4050    -0.8490     0.2120 o          1 AL0      -0.410300
     10 OXT          2.3750    -1.4860    -0.2010 o          1 AL0      -0.713500
     11 HN1          1.1470     2.1430     0.1120 hn         1 AL0       0.384500
     12 HN2         -0.1810     1.8660     1.0100 hn         1 AL0       0.384500
     13 HA           0.5090    -0.4390     1.3080 h1         1 AL0       0.056700
     14 HB1          0.0750     0.3900    -1.5970 h1         1 AL0       0.081200
     15 HB2          0.0430    -1.2650    -0.9790 h1         1 AL0       0.081200
     16 HD1         -2.9970     0.8910    -0.0580 ho         1 AL0       0.481000
@<TRIPOS>BOND
     1     1     2 1   
     2     1    11 1   
     3     1    12 1   
     4     2     3 1   
     5     2     5 1   
     6     2    13 1   
     7     3     4 1   
     8     3    10 1   
     9     5     6 1   
    10     5    14 1   
    11     5    15 1   
    12     6     7 1   
    13     6     8 1   
    14     7    16 1   
    15     8     9 2   
@<TRIPOS>SUBSTRUCTURE
     1 AL0         1 TEMP              0 ****  ****    0 ROOT
