@<TRIPOS>MOLECULE
AL1
   37    39     1     0     0
SMALL
abcg2


@<TRIPOS>ATOM
      1 C3          -0.5330     0.1350    -2.9440 cc         1 AL1      -0.418500
      2 C9          -0.7700    -2.2970     1.1710 c6         1 AL1       0.202800
      3 C10         -1.6800    -1.6520     0.1310 c6         1 AL1      -0.060100
      4 C19         -1.0030     1.7610     3.1480 ca         1 AL1      -0.062000
      5 C20         -0.8120     1.4960     4.4990 ca         1 AL1      -0.189000
      6 C21         -0.2440     0.2850     4.8850 ca         1 AL1       0.147100
      7 C22          0.1310    -0.6410     3.9100 ca         1 AL1      -0.117000
      8 C24         -0.3770     0.8200     7.1910 c3         1 AL1       0.147900
      9 S1          -0.8050     0.8400    -4.5290 sy         1 AL1       1.175600
     10 O1A          0.3750     0.5950    -5.3390 o          1 AL1      -0.538000
     11 O2A         -2.1020     0.3620    -4.9740 o          1 AL1      -0.538000
     12 S2           1.0270     0.1890    -2.2370 ss         1 AL1       0.501000
     13 C6           0.4190    -0.6300    -0.8640 cc         1 AL1      -0.438500
     14 C5          -0.9110    -0.9460    -0.9420 cd         1 AL1      -0.021300
     15 C4          -1.4620    -0.4850    -2.1680 cd         1 AL1      -0.018000
     16 N8           0.2850    -1.3870     1.6390 nh         1 AL1      -0.760300
     17 S7           1.4350    -1.0580     0.5050 sy         1 AL1       1.206600
     18 O3B          2.1990     0.1000     0.9200 o          1 AL1      -0.521500
     19 O4B          2.1320    -2.2850     0.1780 o          1 AL1      -0.521500
     20 C17         -0.0740    -0.3620     2.5710 ca         1 AL1       0.284000
     21 C18         -0.6450     0.8450     2.1740 ca         1 AL1      -0.153000
     22 H91         -0.2980    -3.1910     0.7640 h1         1 AL1       0.080200
     23 H92         -1.3420    -2.6110     2.0420 h1         1 AL1       0.080200
     24 H101        -2.3060    -2.4240    -0.3190 hc         1 AL1       0.072700
     25 H102        -2.3640    -0.9420     0.6040 hc         1 AL1       0.072700
     26 H19         -1.4440     2.7040     2.8550 ha         1 AL1       0.116000
     27 H20         -1.1080     2.2390     5.2270 ha         1 AL1       0.121000
     28 H22          0.5810    -1.5810     4.2030 ha         1 AL1       0.143000
     29 H241        -0.1130     0.3360     8.1280 h1         1 AL1       0.043367
     30 H242         0.1650     1.7670     7.1190 h1         1 AL1       0.043367
     31 H243        -1.4500     1.0260     7.1910 h1         1 AL1       0.043367
     32 HNL1        -0.5160     3.0080    -4.9700 hn         1 AL1       0.482000
     33 HNL2        -1.6610     2.7770    -3.7730 hn         1 AL1       0.482000
     34 H4          -2.4980    -0.6140    -2.4460 ha         1 AL1       0.152000
     35 H18         -0.8050     1.0790     1.1300 ha         1 AL1       0.121000
     36 O23         -0.0120    -0.0760     6.1590 os         1 AL1      -0.338100
     37 N21         -0.7900     2.4430    -4.1720 n8         1 AL1      -1.020100
@<TRIPOS>BOND
     1     1     9 1   
     2     1    12 1   
     3     1    15 2   
     4     2     3 1   
     5     2    16 1   
     6     2    22 1   
     7     2    23 1   
     8     3    14 1   
     9     3    24 1   
    10     3    25 1   
    11     4     5 ar  
    12     4    21 ar  
    13     4    26 1   
    14     5     6 ar  
    15     5    27 1   
    16     6     7 ar  
    17     6    36 1   
    18     7    20 ar  
    19     7    28 1   
    20     8    29 1   
    21     8    30 1   
    22     8    31 1   
    23     8    36 1   
    24     9    10 2   
    25     9    11 2   
    26     9    37 1   
    27    12    13 1   
    28    13    14 2   
    29    13    17 1   
    30    14    15 1   
    31    15    34 1   
    32    16    17 1   
    33    16    20 1   
    34    17    18 2   
    35    17    19 2   
    36    20    21 ar  
    37    21    35 1   
    38    32    37 1   
    39    33    37 1   
@<TRIPOS>SUBSTRUCTURE
     1 AL1         1 TEMP              0 ****  ****    0 ROOT
