@<TRIPOS>MOLECULE
AL1
   37    39     1     0     0
SMALL
No Charge or Current Charge


@<TRIPOS>ATOM
      1 C3          -0.4220     0.1660    -3.0590 cc         1 AL1      -0.418500
      2 C9          -0.8030    -2.2360     1.1160 c6         1 AL1       0.202800
      3 C10         -1.6910    -1.4930     0.0790 c6         1 AL1      -0.060100
      4 C19         -0.7090     1.8840     3.1740 ca         1 AL1      -0.062000
      5 C20         -0.6620     1.5480     4.5380 ca         1 AL1      -0.189000
      6 C21         -0.2990     0.2420     4.9280 ca         1 AL1       0.147100
      7 C22          0.0190    -0.7110     3.9480 ca         1 AL1      -0.117000
      8 C24         -0.5500     0.7500     7.3310 c3         1 AL1       0.147900
      9 S1          -0.6230     0.8320    -4.6700 sy         1 AL1       1.175600
     10 O1A          0.6760     0.9840    -5.3230 o          1 AL1      -0.538000
     11 O2A         -1.7850     0.2180    -5.3060 o          1 AL1      -0.538000
     12 S2           1.1620     0.1330    -2.3150 ss         1 AL1       0.501000
     13 C6           0.4800    -0.6310    -0.9050 cc         1 AL1      -0.438500
     14 C5          -0.8660    -0.8530    -1.0170 cd         1 AL1      -0.021300
     15 C4          -1.3880    -0.3980    -2.2570 cd         1 AL1      -0.018000
     16 N8           0.2880    -1.3750     1.6400 nh         1 AL1      -0.760300
     17 S7           1.4880    -1.0550     0.4740 sy         1 AL1       1.206600
     18 O3B          2.2540     0.1320     0.8700 o          1 AL1      -0.521500
     19 O4B          2.1540    -2.3240     0.1640 o          1 AL1      -0.521500
     20 C17         -0.0100    -0.3800     2.5850 ca         1 AL1       0.284000
     21 C18         -0.3880     0.9220     2.2030 ca         1 AL1      -0.153000
     22 H91         -0.3830    -3.1380     0.6450 h1         1 AL1       0.080200
     23 H92         -1.4350    -2.5920     1.9440 h1         1 AL1       0.080200
     24 H101        -2.4140    -2.2010    -0.3480 hc         1 AL1       0.072700
     25 H102        -2.2840    -0.7260     0.5930 hc         1 AL1       0.072700
     26 H19         -0.9970     2.8880     2.8700 ha         1 AL1       0.116000
     27 H20         -0.9150     2.3090     5.2700 ha         1 AL1       0.121000
     28 H22          0.2940    -1.7170     4.2470 ha         1 AL1       0.143000
     29 H241        -0.4430     0.2370     8.2950 h1         1 AL1       0.043367
     30 H242         0.1300     1.6110     7.3270 h1         1 AL1       0.043367
     31 H243        -1.5820     1.1150     7.2540 h1         1 AL1       0.043367
     32 HNL1        -1.9740     2.3890    -4.8520 hn         1 AL1       0.482000
     33 HNL2        -1.4580     2.2050    -3.3480 hn         1 AL1       0.482000
     34 H4          -2.4350    -0.4880    -2.5350 ha         1 AL1       0.152000
     35 H18         -0.4410     1.1900     1.1520 ha         1 AL1       0.121000
     36 O23         -0.2430    -0.1490     6.2510 os         1 AL1      -0.338100
     37 N21         -1.1230     2.3360    -4.2980 n8         1 AL1      -1.020100
@<TRIPOS>BOND
     1     1     9 1   
     2     1    12 1   
     3     1    15 2   
     4     2     3 1   
     5     2    16 1   
     6     2    22 1   
     7     2    23 1   
     8     3    14 1   
     9     3    24 1   
    10     3    25 1   
    11     4     5 ar  
    12     4    21 ar  
    13     4    26 1   
    14     5     6 ar  
    15     5    27 1   
    16     6     7 ar  
    17     6    36 1   
    18     7    20 ar  
    19     7    28 1   
    20     8    29 1   
    21     8    30 1   
    22     8    31 1   
    23     8    36 1   
    24     9    10 2   
    25     9    11 2   
    26     9    37 1   
    27    12    13 1   
    28    13    14 2   
    29    13    17 1   
    30    14    15 1   
    31    15    34 1   
    32    16    17 1   
    33    16    20 1   
    34    17    18 2   
    35    17    19 2   
    36    20    21 ar  
    37    21    35 1   
    38    32    37 1   
    39    33    37 1   
@<TRIPOS>SUBSTRUCTURE
     1 AL1         1 TEMP              0 ****  ****    0 ROOT
