@<TRIPOS>MOLECULE
AL2
   38    40     1     0     0
SMALL
bcc


@<TRIPOS>ATOM
      1 C3           0.3420    -0.5910    -2.7930 cc         1 AL2      -0.276600
      2 O5           2.0470     2.6460    -0.6820 oh         1 AL2      -0.574800
      3 C9           0.3090     2.4100     0.9150 c6         1 AL2       0.197800
      4 C10          1.3090     1.6800     0.0180 c6         1 AL2       0.178400
      5 C11         -0.2920     0.7160     2.6480 ca         1 AL2       0.066600
      6 C12         -0.7200     1.1290     3.9050 ca         1 AL2      -0.074500
      7 C13         -0.3500     0.4310     5.0380 ca         1 AL2      -0.186000
      8 C14          0.4570    -0.7050     4.9310 ca         1 AL2       0.158100
      9 C15          0.8800    -1.1280     3.6720 ca         1 AL2      -0.186000
     10 C16          0.5030    -0.4160     2.5420 ca         1 AL2      -0.074500
     11 O1A          1.8080    -0.8120    -4.9010 o          1 AL2      -0.608300
     12 O2A         -0.5580    -1.6630    -4.9800 o          1 AL2      -0.608300
     13 N21          1.0910    -2.9600    -3.6580 n8         1 AL2      -0.909700
     14 S1           0.6910    -1.4860    -4.2630 sy         1 AL2       1.318200
     15 C4           1.2020     0.2100    -2.1090 cd         1 AL2      -0.023000
     16 C5           0.6020     0.7530    -0.9430 cd         1 AL2      -0.056300
     17 C6          -0.6910     0.3230    -0.8150 cc         1 AL2      -0.279600
     18 S2          -1.2080    -0.7140    -2.0730 ss         1 AL2       0.219200
     19 S7          -1.7690     0.8840     0.4580 sy         1 AL2       1.349200
     20 O3B         -2.5620     1.9640    -0.0940 o          1 AL2      -0.590800
     21 O4B         -2.4360    -0.2440     1.0710 o          1 AL2      -0.590800
     22 N8          -0.6670     1.5000     1.5160 nh         1 AL2      -0.620900
     23 O6           0.7710    -1.3220     6.0800 os         1 AL2      -0.312900
     24 C17          1.6100    -2.4620     6.0320 c3         1 AL2       0.124700
     25 HO5          2.9770     2.4040    -0.6720 ho         1 AL2       0.413000
     26 H91         -0.2170     3.1720     0.3370 h1         1 AL2       0.089200
     27 H92          0.8310     2.9210     1.7240 h1         1 AL2       0.089200
     28 H10          1.9690     1.0670     0.6450 h1         1 AL2       0.050700
     29 H12         -1.3460     2.0070     3.9930 ha         1 AL2       0.140500
     30 H13         -0.6810     0.7600     6.0140 ha         1 AL2       0.146000
     31 H15          1.5020    -2.0040     3.5470 ha         1 AL2       0.146000
     32 H16          0.8370    -0.7720     1.5750 ha         1 AL2       0.140500
     33 HNL1         0.9150    -3.7060    -4.3250 hn         1 AL2       0.425800
     34 HNL2         2.0410    -3.0050    -3.3040 hn         1 AL2       0.425800
     35 H4           2.2200     0.4030    -2.4150 ha         1 AL2       0.166000
     36 H171         1.7390    -2.7930     7.0590 h1         1 AL2       0.043700
     37 H172         1.1630    -3.2740     5.4540 h1         1 AL2       0.043700
     38 H173         2.5900    -2.2260     5.6100 h1         1 AL2       0.043700
@<TRIPOS>BOND
     1     1    14 1   
     2     1    15 2   
     3     1    18 1   
     4     2     4 1   
     5     2    25 1   
     6     3     4 1   
     7     3    22 1   
     8     3    26 1   
     9     3    27 1   
    10     4    16 1   
    11     4    28 1   
    12     5     6 ar  
    13     5    10 ar  
    14     5    22 1   
    15     6     7 ar  
    16     6    29 1   
    17     7     8 ar  
    18     7    30 1   
    19     8     9 ar  
    20     8    23 1   
    21     9    10 ar  
    22     9    31 1   
    23    10    32 1   
    24    11    14 2   
    25    12    14 2   
    26    13    14 1   
    27    13    33 1   
    28    13    34 1   
    29    15    16 1   
    30    15    35 1   
    31    16    17 2   
    32    17    18 1   
    33    17    19 1   
    34    19    20 2   
    35    19    21 2   
    36    19    22 1   
    37    23    24 1   
    38    24    36 1   
    39    24    37 1   
    40    24    38 1   
@<TRIPOS>SUBSTRUCTURE
     1 AL2         1 TEMP              0 ****  ****    0 ROOT
