@<TRIPOS>MOLECULE
AL2
   38    40     1     0     0
SMALL
No Charge or Current Charge


@<TRIPOS>ATOM
      1 C3           0.3380    -0.6960    -2.7480 cc         1 AL2      -0.421500
      2 O5           1.9840     2.7620    -0.7470 oh         1 AL2      -0.637000
      3 C9           0.1770     2.5010     0.8980 c6         1 AL2       0.197800
      4 C10          1.2210     1.7840    -0.0230 c6         1 AL2       0.201600
      5 C11         -0.3460     0.7840     2.6420 ca         1 AL2       0.205000
      6 C12         -0.3960     1.3330     3.9350 ca         1 AL2      -0.056500
      7 C13          0.0570     0.5970     5.0460 ca         1 AL2      -0.168000
      8 C14          0.5760    -0.6950     4.8770 ca         1 AL2       0.158100
      9 C15          0.6450    -1.2500     3.5810 ca         1 AL2      -0.168000
     10 C16          0.1910    -0.5100     2.4730 ca         1 AL2      -0.056500
     11 O1A          1.8010    -1.0280    -4.9050 o          1 AL2      -0.537500
     12 O2A         -0.5300    -2.1230    -4.7980 o          1 AL2      -0.537500
     13 N21          1.3840    -2.9570    -3.4740 n8         1 AL2      -1.020100
     14 S1           0.7040    -1.6520    -4.1710 sy         1 AL2       1.176600
     15 C4           1.1720     0.1730    -2.0820 cd         1 AL2      -0.005000
     16 C5           0.5400     0.8040    -0.9730 cd         1 AL2      -0.056300
     17 C6          -0.7630     0.3880    -0.8250 cc         1 AL2      -0.424500
     18 S2          -1.2620    -0.7530    -2.0440 ss         1 AL2       0.509000
     19 S7          -1.8820     0.8900     0.4380 sy         1 AL2       1.207600
     20 O3B         -2.6990     1.9840    -0.0970 o          1 AL2      -0.520000
     21 O4B         -2.4950    -0.3090     1.0200 o          1 AL2      -0.520000
     22 N8          -0.7830     1.5660     1.5530 nh         1 AL2      -0.759300
     23 O6           1.0050    -1.3700     6.0010 os         1 AL2      -0.336100
     24 C17          1.5530    -2.6990     5.9360 c3         1 AL2       0.147900
     25 HO5          2.7210     2.2810    -1.1810 ho         1 AL2       0.452000
     26 H91         -0.3700     3.2430     0.2960 h1         1 AL2       0.089200
     27 H92          0.7190     3.0760     1.6620 h1         1 AL2       0.089200
     28 H10          1.8910     1.2080     0.6320 h1         1 AL2       0.050700
     29 H12         -0.7930     2.3350     4.0760 ha         1 AL2       0.122500
     30 H13          0.0060     1.0320     6.0400 ha         1 AL2       0.128000
     31 H15          1.0490    -2.2440     3.4130 ha         1 AL2       0.128000
     32 H16          0.2650    -0.9460     1.4800 ha         1 AL2       0.122500
     33 HNL1         2.2510    -3.0180    -4.0010 hn         1 AL2       0.481000
     34 HNL2         1.6690    -2.5790    -2.5750 hn         1 AL2       0.481000
     35 H4           2.2040     0.3540    -2.3710 ha         1 AL2       0.148000
     36 H171         1.8280    -3.0460     6.9390 h1         1 AL2       0.043700
     37 H172         0.8210    -3.4030     5.5210 h1         1 AL2       0.043700
     38 H173         2.4550    -2.7190     5.3110 h1         1 AL2       0.043700
@<TRIPOS>BOND
     1     1    14 1   
     2     1    15 2   
     3     1    18 1   
     4     2     4 1   
     5     2    25 1   
     6     3     4 1   
     7     3    22 1   
     8     3    26 1   
     9     3    27 1   
    10     4    16 1   
    11     4    28 1   
    12     5     6 ar  
    13     5    10 ar  
    14     5    22 1   
    15     6     7 ar  
    16     6    29 1   
    17     7     8 ar  
    18     7    30 1   
    19     8     9 ar  
    20     8    23 1   
    21     9    10 ar  
    22     9    31 1   
    23    10    32 1   
    24    11    14 2   
    25    12    14 2   
    26    13    14 1   
    27    13    33 1   
    28    13    34 1   
    29    15    16 1   
    30    15    35 1   
    31    16    17 2   
    32    17    18 1   
    33    17    19 1   
    34    19    20 2   
    35    19    21 2   
    36    19    22 1   
    37    23    24 1   
    38    24    36 1   
    39    24    37 1   
    40    24    38 1   
@<TRIPOS>SUBSTRUCTURE
     1 AL2         1 TEMP              0 ****  ****    0 ROOT
