@<TRIPOS>MOLECULE
AL3
   34    36     1     0     0
SMALL
bcc


@<TRIPOS>ATOM
      1 C3          -0.0370     0.1030     3.0560 cc         1 AL3      -0.272600
      2 O5          -3.2790     0.2640     0.3470 oh         1 AL3      -0.579800
      3 C9          -1.7130    -0.2010    -1.3770 c6         1 AL3       0.188800
      4 C10         -2.1650    -0.5300     0.0430 c6         1 AL3       0.201400
      5 C12          0.1150    -0.5230    -4.0570 cc         1 AL3      -0.152400
      6 C13          1.3480    -0.3470    -4.6100 cd         1 AL3      -0.109000
      7 C14          1.3840     0.7060    -5.5640 cd         1 AL3      -0.150000
      8 C15          0.1770     1.3170    -5.7110 cc         1 AL3      -0.090100
      9 O1A         -1.0730     0.8100     5.3010 o          1 AL3      -0.610300
     10 O2A          1.3990     1.1430     4.9480 o          1 AL3      -0.610300
     11 N21          0.5760    -1.1710     5.2850 n8         1 AL3      -0.912700
     12 S1           0.1980     0.3440     4.7790 sy         1 AL3       1.321200
     13 C4          -1.2220    -0.1060     2.4220 cd         1 AL3      -0.024000
     14 C5          -1.0470    -0.2860     1.0260 cd         1 AL3      -0.041300
     15 C6           0.2710    -0.2000     0.6850 cc         1 AL3      -0.252600
     16 S2           1.3160     0.1010     2.0060 ss         1 AL3       0.207200
     17 S7           0.8750    -0.2400    -0.9650 sy         1 AL3       1.333200
     18 O3B          1.1240     1.1340    -1.3670 o          1 AL3      -0.600800
     19 O4B          1.9690    -1.1870    -1.0770 o          1 AL3      -0.600800
     20 N8          -0.4640    -0.9090    -1.6630 n3         1 AL3      -0.741500
     21 S16         -1.0120     0.6090    -4.7010 ss         1 AL3      -0.082800
     22 HO5         -3.9320    -0.2710     0.8070 ho         1 AL3       0.414000
     23 H91         -2.4650    -0.5560    -2.0820 h1         1 AL3       0.074700
     24 H92         -1.6260     0.8830    -1.5090 h1         1 AL3       0.074700
     25 H10         -2.4120    -1.5980     0.0820 h1         1 AL3       0.058700
     26 H111         0.4980    -2.2710    -2.9220 h1         1 AL3       0.080200
     27 H112        -1.2010    -2.0100    -3.2270 h1         1 AL3       0.080200
     28 H13          2.2040    -0.9530    -4.3450 ha         1 AL3       0.163000
     29 H14          2.2670     0.9940    -6.1160 ha         1 AL3       0.158000
     30 H15         -0.0800     2.1390    -6.3620 h4         1 AL3       0.171000
     31 HNL1         1.2080    -1.1640     6.0790 hn         1 AL3       0.427300
     32 HNL2        -0.2370    -1.7500     5.4680 hn         1 AL3       0.427300
     33 H4          -2.1780    -0.1310     2.9250 ha         1 AL3       0.167000
     34 C11         -0.2680    -1.4990    -2.9910 c3         1 AL3       0.281100
@<TRIPOS>BOND
     1     1    12 1   
     2     1    13 2   
     3     1    16 1   
     4     2     4 1   
     5     2    22 1   
     6     3     4 1   
     7     3    20 1   
     8     3    23 1   
     9     3    24 1   
    10     4    14 1   
    11     4    25 1   
    12     5     6 2   
    13     5    21 1   
    14     5    34 1   
    15     6     7 1   
    16     6    28 1   
    17     7     8 2   
    18     7    29 1   
    19     8    21 1   
    20     8    30 1   
    21     9    12 2   
    22    10    12 2   
    23    11    12 1   
    24    11    31 1   
    25    11    32 1   
    26    13    14 1   
    27    13    33 1   
    28    14    15 2   
    29    15    16 1   
    30    15    17 1   
    31    17    18 2   
    32    17    19 2   
    33    17    20 1   
    34    20    34 1   
    35    26    34 1   
    36    27    34 1   
@<TRIPOS>SUBSTRUCTURE
     1 AL3         1 TEMP              0 ****  ****    0 ROOT
