@<TRIPOS>MOLECULE
AL3
   34    36     1     0     0
SMALL
No Charge or Current Charge


@<TRIPOS>ATOM
      1 C3           0.0640     0.0650     2.9910 cc         1 AL3      -0.417500
      2 O5          -3.1360     0.2490     0.1340 oh         1 AL3      -0.642000
      3 C9          -1.5160    -0.5530    -1.5360 c6         1 AL3       0.188800
      4 C10         -2.0560    -0.6780    -0.0680 c6         1 AL3       0.224600
      5 C12          0.0690    -0.3770    -4.0860 cc         1 AL3      -0.297300
      6 C13          1.2310     0.2930    -4.3830 cd         1 AL3      -0.091000
      7 C14          1.0340     1.4480    -5.1860 cd         1 AL3      -0.132000
      8 C15         -0.2770     1.6630    -5.5240 cc         1 AL3      -0.217000
      9 O1A         -0.8200     1.4250     5.0840 o          1 AL3      -0.539500
     10 O2A          1.6930     0.9430     4.8830 o          1 AL3      -0.539500
     11 N21          0.0870    -0.8000     5.4690 n8         1 AL3      -1.023100
     12 S1           0.2960     0.5890     4.6510 sy         1 AL3       1.179600
     13 C4          -1.1210    -0.0130     2.2940 cd         1 AL3      -0.006000
     14 C5          -0.9440    -0.4710     0.9560 cd         1 AL3      -0.041300
     15 C6           0.3730    -0.7350     0.6810 cc         1 AL3      -0.397500
     16 S2           1.4370    -0.4190     2.0240 ss         1 AL3       0.497000
     17 S7           0.9820    -1.3170    -0.8560 sy         1 AL3       1.191600
     18 O3B          1.8480    -0.2620    -1.3870 o          1 AL3      -0.530000
     19 O4B          1.4810    -2.6740    -0.6120 o          1 AL3      -0.530000
     20 N8          -0.3770    -1.4630    -1.8630 n3         1 AL3      -0.741500
     21 S16         -1.3120     0.4050    -4.8580 ss         1 AL3       0.207000
     22 HO5         -3.6180    -0.0520     0.9340 ho         1 AL3       0.453000
     23 H91         -2.3580    -0.7540    -2.2150 h1         1 AL3       0.074700
     24 H92         -1.2180     0.4920    -1.7050 h1         1 AL3       0.074700
     25 H10         -2.4320    -1.7060     0.0470 h1         1 AL3       0.058700
     26 H111         0.7880    -2.2870    -3.4440 h1         1 AL3       0.080200
     27 H112        -0.9360    -2.2110    -3.7500 h1         1 AL3       0.080200
     28 H13          2.2100    -0.0260    -4.0370 ha         1 AL3       0.145000
     29 H14          1.8450     2.0960    -5.5040 ha         1 AL3       0.140000
     30 H15         -0.7120     2.4550    -6.1190 h4         1 AL3       0.153000
     31 HNL1         0.8330    -0.7200     6.1550 hn         1 AL3       0.482500
     32 HNL2        -0.7320    -0.5530     6.0200 hn         1 AL3       0.482500
     33 H4          -2.0850     0.2480     2.7220 ha         1 AL3       0.149000
     34 C11         -0.1010    -1.6550    -3.3000 c3         1 AL3       0.281100
@<TRIPOS>BOND
     1     1    12 1   
     2     1    13 2   
     3     1    16 1   
     4     2     4 1   
     5     2    22 1   
     6     3     4 1   
     7     3    20 1   
     8     3    23 1   
     9     3    24 1   
    10     4    14 1   
    11     4    25 1   
    12     5     6 2   
    13     5    21 1   
    14     5    34 1   
    15     6     7 1   
    16     6    28 1   
    17     7     8 2   
    18     7    29 1   
    19     8    21 1   
    20     8    30 1   
    21     9    12 2   
    22    10    12 2   
    23    11    12 1   
    24    11    31 1   
    25    11    32 1   
    26    13    14 1   
    27    13    33 1   
    28    14    15 2   
    29    15    16 1   
    30    15    17 1   
    31    17    18 2   
    32    17    19 2   
    33    17    20 1   
    34    20    34 1   
    35    26    34 1   
    36    27    34 1   
@<TRIPOS>SUBSTRUCTURE
     1 AL3         1 TEMP              0 ****  ****    0 ROOT
