@<TRIPOS>MOLECULE
AL4
   41    42     1     0     0
SMALL
No Charge or Current Charge


@<TRIPOS>ATOM
      1 C3          -0.5690     0.1160    -2.4820 cc         1 AL4      -0.428500
      2 C9           1.5330    -0.4780     1.8700 c6         1 AL4       0.172800
      3 C10          1.8220    -0.7200     0.3380 c6         1 AL4       0.226800
      4 C12          0.1410    -0.0110     4.7220 c3         1 AL4       0.122600
      5 C14         -1.4180     1.3950     5.9320 c3         1 AL4       0.151900
      6 O1A         -2.2730     1.0890    -4.2540 o          1 AL4      -0.541500
      7 O2A          0.2470     1.0570    -4.7950 o          1 AL4      -0.541500
      8 N21         -1.0590    -1.0020    -4.7710 n8         1 AL4      -1.017100
      9 S1          -0.9390     0.5000    -4.1520 sy         1 AL4       1.177600
     10 C4           0.6700    -0.1310    -1.9340 cd         1 AL4       0.008000
     11 C5           0.6140    -0.3880    -0.5340 cd         1 AL4      -0.019300
     12 C6          -0.6720    -0.3350    -0.0610 cc         1 AL4      -0.405500
     13 S2          -1.8450     0.0650    -1.2850 ss         1 AL4       0.485000
     14 S7          -1.1370    -0.6130     1.6020 sy         1 AL4       1.227600
     15 O3B         -2.0560    -1.7560     1.5840 o          1 AL4      -0.530500
     16 O4B         -1.5240     0.6880     2.1520 o          1 AL4      -0.530500
     17 N8           0.2860    -1.1210     2.3770 n3         1 AL4      -0.771500
     18 N15          3.0110     0.0410    -0.1420 n7         1 AL4      -0.875400
     19 O13         -1.2200     0.2050     5.1490 os         1 AL4      -0.463000
     20 C17          5.4230     0.5060    -0.2800 c3         1 AL4      -0.095100
     21 H91          2.3960    -0.8530     2.4390 h1         1 AL4       0.059200
     22 H92          1.4900     0.6070     2.0480 h1         1 AL4       0.059200
     23 H10          2.0270    -1.7950     0.2160 h1         1 AL4       0.082700
     24 H111        -0.6500    -1.9380     4.1100 h1         1 AL4       0.076200
     25 H112         1.0940    -1.8550     4.1800 h1         1 AL4       0.076200
     26 H121         0.7860    -0.1500     5.6000 h1         1 AL4       0.033700
     27 H122         0.5230     0.8490     4.1590 h1         1 AL4       0.033700
     28 H141        -2.4720     1.4920     6.2210 h1         1 AL4       0.035033
     29 H142        -0.8140     1.3640     6.8480 h1         1 AL4       0.035033
     30 H143        -1.1370     2.2890     5.3600 h1         1 AL4       0.035033
     31 H161         4.5310    -1.3610     0.3340 h1         1 AL4       0.027700
     32 H162         4.3490    -0.0410     1.5100 h1         1 AL4       0.027700
     33 HNL1        -0.4240    -0.9270    -5.5610 hn         1 AL4       0.479500
     34 HNL2        -0.5370    -1.5420    -4.0870 hn         1 AL4       0.479500
     35 H4           1.5970    -0.1310    -2.5020 ha         1 AL4       0.163000
     36 HNF          2.8340     1.0450    -0.0150 hn         1 AL4       0.425000
     37 H171         6.4050     0.2600     0.1420 hc         1 AL4       0.042033
     38 H172         5.4390     0.2650    -1.3490 hc         1 AL4       0.042033
     39 H173         5.2630     1.5850    -0.1670 hc         1 AL4       0.042033
     40 C11          0.2050    -1.2990     3.8520 c3         1 AL4       0.222800
     41 C16          4.3230    -0.2880     0.4400 c3         1 AL4       0.167800
@<TRIPOS>BOND
     1     1     9 1   
     2     1    10 2   
     3     1    13 1   
     4     2     3 1   
     5     2    17 1   
     6     2    21 1   
     7     2    22 1   
     8     3    11 1   
     9     3    18 1   
    10     3    23 1   
    11     4    19 1   
    12     4    26 1   
    13     4    27 1   
    14     4    40 1   
    15     5    19 1   
    16     5    28 1   
    17     5    29 1   
    18     5    30 1   
    19     6     9 2   
    20     7     9 2   
    21     8     9 1   
    22     8    33 1   
    23     8    34 1   
    24    10    11 1   
    25    10    35 1   
    26    11    12 2   
    27    12    13 1   
    28    12    14 1   
    29    14    15 2   
    30    14    16 2   
    31    14    17 1   
    32    17    40 1   
    33    18    36 1   
    34    18    41 1   
    35    20    37 1   
    36    20    38 1   
    37    20    39 1   
    38    20    41 1   
    39    24    40 1   
    40    25    40 1   
    41    31    41 1   
    42    32    41 1   
@<TRIPOS>SUBSTRUCTURE
     1 AL4         1 TEMP              0 ****  ****    0 ROOT
