@<TRIPOS>MOLECULE
AL4
   41    42     1     0     0
SMALL
abcg2


@<TRIPOS>ATOM
      1 C3          -0.4330     0.0370    -2.4180 cc         1 AL4      -0.428500
      2 C9           1.5110    -0.0050     1.9220 c6         1 AL4       0.172800
      3 C10          1.8820    -0.4040     0.4870 c6         1 AL4       0.226800
      4 C12          0.0510    -0.5750     4.7870 c3         1 AL4       0.122600
      5 C14         -1.2830     1.1730     5.6100 c3         1 AL4       0.151900
      6 O1A         -1.9180     1.0060    -4.3180 o          1 AL4      -0.541500
      7 O2A          0.4710     0.3940    -4.8050 o          1 AL4      -0.541500
      8 N21         -1.3480    -1.4030    -4.4160 n8         1 AL4      -1.017100
      9 S1          -0.7850     0.1160    -4.1330 sy         1 AL4       1.177600
     10 C4           0.7870    -0.1510    -1.8470 cd         1 AL4       0.008000
     11 C5           0.7050    -0.1980    -0.4300 cd         1 AL4      -0.019300
     12 C6          -0.5850    -0.0440    -0.0110 cc         1 AL4      -0.405500
     13 S2          -1.7100     0.1710    -1.2810 ss         1 AL4       0.485000
     14 S7          -1.0860     0.0360     1.6770 sy         1 AL4       1.227600
     15 O3B         -2.2190    -0.8470     1.8860 o          1 AL4      -0.530500
     16 O4B         -1.2480     1.4470     1.9820 o          1 AL4      -0.530500
     17 N8           0.2580    -0.6490     2.3140 n3         1 AL4      -0.771500
     18 N15          3.0370     0.2750    -0.0460 n7         1 AL4      -0.875400
     19 O13         -1.1810     0.0880     4.7250 os         1 AL4      -0.463000
     20 C17          5.4550     0.5940    -0.1510 c3         1 AL4      -0.095100
     21 H91          2.2820    -0.3380     2.6160 h1         1 AL4       0.059200
     22 H92          1.4580     1.0850     2.0110 h1         1 AL4       0.059200
     23 H10          2.1030    -1.4780     0.4860 h1         1 AL4       0.082700
     24 H111        -0.6510    -2.1300     3.4710 h1         1 AL4       0.076200
     25 H112         1.0900    -2.0230     3.5970 h1         1 AL4       0.076200
     26 H121         0.1250    -1.2140     5.6760 h1         1 AL4       0.033700
     27 H122         0.8870     0.1390     4.8340 h1         1 AL4       0.033700
     28 H141        -2.2510     1.6470     5.4500 h1         1 AL4       0.035033
     29 H142        -1.2220     0.8580     6.6580 h1         1 AL4       0.035033
     30 H143        -0.4980     1.9180     5.4340 h1         1 AL4       0.035033
     31 H161         4.4130    -1.1980     0.4140 h1         1 AL4       0.027700
     32 H162         4.3670     0.0730     1.6220 h1         1 AL4       0.027700
     33 HNL1        -1.9580    -1.4370    -5.2280 hn         1 AL4       0.479500
     34 HNL2        -0.6120    -2.0970    -4.4870 hn         1 AL4       0.479500
     35 H4           1.7100    -0.2510    -2.3990 ha         1 AL4       0.163000
     36 HNF          2.9150     1.2800     0.0190 hn         1 AL4       0.425000
     37 H171         6.4110     0.2710     0.2600 hc         1 AL4       0.042033
     38 H172         5.4550     0.3870    -1.2220 hc         1 AL4       0.042033
     39 H173         5.3870     1.6750    -0.0170 hc         1 AL4       0.042033
     40 C11          0.1790    -1.4270     3.5450 c3         1 AL4       0.222800
     41 C16          4.3080    -0.1170     0.5410 c3         1 AL4       0.167800
@<TRIPOS>BOND
     1     1     9 1   
     2     1    10 2   
     3     1    13 1   
     4     2     3 1   
     5     2    17 1   
     6     2    21 1   
     7     2    22 1   
     8     3    11 1   
     9     3    18 1   
    10     3    23 1   
    11     4    19 1   
    12     4    26 1   
    13     4    27 1   
    14     4    40 1   
    15     5    19 1   
    16     5    28 1   
    17     5    29 1   
    18     5    30 1   
    19     6     9 2   
    20     7     9 2   
    21     8     9 1   
    22     8    33 1   
    23     8    34 1   
    24    10    11 1   
    25    10    35 1   
    26    11    12 2   
    27    12    13 1   
    28    12    14 1   
    29    14    15 2   
    30    14    16 2   
    31    14    17 1   
    32    17    40 1   
    33    18    36 1   
    34    18    41 1   
    35    20    37 1   
    36    20    38 1   
    37    20    39 1   
    38    20    41 1   
    39    24    40 1   
    40    25    40 1   
    41    31    41 1   
    42    32    41 1   
@<TRIPOS>SUBSTRUCTURE
     1 AL4         1 TEMP              0 ****  ****    0 ROOT
