@<TRIPOS>MOLECULE
AL5
   35    36     1     0     0
SMALL
abcg2


@<TRIPOS>ATOM
      1 C3           0.2170    -0.3460    -2.9080 cc         1 AL5      -0.427500
      2 C9          -0.0950     0.7800     1.8740 c3         1 AL5       0.253100
      3 C10          0.5270     0.4450     3.1990 ca         1 AL5      -0.114300
      4 C11          1.6980    -0.3000     3.2640 ca         1 AL5      -0.086000
      5 C12          2.2590    -0.6330     4.4900 ca         1 AL5      -0.114500
      6 C13          1.6630    -0.2340     5.6830 ca         1 AL5      -0.061300
      7 C14          0.4850     0.5090     5.6100 ca         1 AL5      -0.114500
      8 C15         -0.0760     0.8450     4.3890 ca         1 AL5      -0.086000
      9 C16          2.2820    -0.5690     7.0080 c3         1 AL5      -0.050800
     10 O2A          1.9670     1.2890    -3.9320 o          1 AL5      -0.540000
     11 O1A          2.0220    -1.1430    -4.5600 o          1 AL5      -0.540000
     12 N21          0.1650     0.4490    -5.4110 n8         1 AL5      -1.015100
     13 S1           1.2660     0.0590    -4.2550 sy         1 AL5       1.174600
     14 C4          -0.1470    -1.6030    -2.5220 cd         1 AL5      -0.029000
     15 C5          -1.0210    -1.5740    -1.4120 cd         1 AL5      -0.032000
     16 C6          -1.2760    -0.2960    -1.0080 cc         1 AL5      -0.457500
     17 S2          -0.4760     0.8890    -1.9480 ss         1 AL5       0.504000
     18 S7          -2.2410     0.1970     0.3800 sy         1 AL5       1.188600
     19 O3B         -3.3510    -0.7280     0.4850 o          1 AL5      -0.529500
     20 O4B         -2.4490     1.6230     0.2160 o          1 AL5      -0.529500
     21 N8          -1.3140    -0.0170     1.7090 n7         1 AL5      -0.873300
     22 H91         -0.3690     1.8340     1.8380 h1         1 AL5       0.061200
     23 H92          0.6260     0.5940     1.0710 h1         1 AL5       0.061200
     24 H11          2.1790    -0.6250     2.3490 ha         1 AL5       0.117000
     25 H12          3.1710    -1.2180     4.5150 ha         1 AL5       0.115000
     26 H14         -0.0010     0.8290     6.5250 ha         1 AL5       0.115000
     27 H15         -0.9920     1.4230     4.3610 ha         1 AL5       0.117000
     28 H161         2.9500     0.2290     7.3390 hc         1 AL5       0.044700
     29 H162         1.5250    -0.6970     7.7820 hc         1 AL5       0.044700
     30 H163         2.8710    -1.4840     6.9570 hc         1 AL5       0.044700
     31 HNL1         0.5610     1.0530    -6.1250 hn         1 AL5       0.481500
     32 HNL2        -0.2810    -0.3610    -5.8300 hn         1 AL5       0.481500
     33 H4           0.1850    -2.5080    -3.0080 ha         1 AL5       0.153000
     34 H5          -1.4310    -2.4550    -0.9410 ha         1 AL5       0.149000
     35 HN8         -1.2120    -0.9970     1.9530 hn         1 AL5       0.490000
@<TRIPOS>BOND
     1     1    13 1   
     2     1    14 2   
     3     1    17 1   
     4     2     3 1   
     5     2    21 1   
     6     2    22 1   
     7     2    23 1   
     8     3     4 ar  
     9     3     8 ar  
    10     4     5 ar  
    11     4    24 1   
    12     5     6 ar  
    13     5    25 1   
    14     6     7 ar  
    15     6     9 1   
    16     7     8 ar  
    17     7    26 1   
    18     8    27 1   
    19     9    28 1   
    20     9    29 1   
    21     9    30 1   
    22    10    13 2   
    23    11    13 2   
    24    12    13 1   
    25    12    31 1   
    26    12    32 1   
    27    14    15 1   
    28    14    33 1   
    29    15    16 2   
    30    15    34 1   
    31    16    17 1   
    32    16    18 1   
    33    18    19 2   
    34    18    20 2   
    35    18    21 1   
    36    21    35 1   
@<TRIPOS>SUBSTRUCTURE
     1 AL5         1 TEMP              0 ****  ****    0 ROOT
