@<TRIPOS>MOLECULE
AL5
   35    36     1     0     0
SMALL
No Charge or Current Charge


@<TRIPOS>ATOM
      1 C3           0.3560    -0.5990    -3.1480 cc         1 AL5      -0.427500
      2 C9          -0.8640     1.3440     2.5450 c3         1 AL5       0.253100
      3 C10          0.0470     0.7740     3.6220 ca         1 AL5      -0.114300
      4 C11          1.3730     1.2340     3.7550 ca         1 AL5      -0.086000
      5 C12          2.2100     0.7060     4.7530 ca         1 AL5      -0.114500
      6 C13          1.7340    -0.2870     5.6300 ca         1 AL5      -0.061300
      7 C14          0.4120    -0.7500     5.4950 ca         1 AL5      -0.114500
      8 C15         -0.4270    -0.2220     4.4980 ca         1 AL5      -0.086000
      9 C16          2.6420    -0.8600     6.7070 c3         1 AL5      -0.050800
     10 O2A          2.0010     0.7490    -4.7230 o          1 AL5      -0.540000
     11 O1A          2.1230    -1.8250    -4.6580 o          1 AL5      -0.540000
     12 N21          0.2600    -0.6850    -5.7380 n8         1 AL5      -1.015100
     13 S1           1.3860    -0.5680    -4.5680 sy         1 AL5       1.174600
     14 C4          -0.1580    -1.7020    -2.5040 cd         1 AL5      -0.029000
     15 C5          -0.9410    -1.3570    -1.3710 cd         1 AL5      -0.032000
     16 C6          -0.9990     0.0000    -1.1610 cc         1 AL5      -0.457500
     17 S2          -0.0980     0.8980    -2.3630 ss         1 AL5       0.504000
     18 S7          -1.8670     0.8480     0.1120 sy         1 AL5       1.188600
     19 O3B         -3.1770     0.2160     0.2820 o          1 AL5      -0.529500
     20 O4B         -1.6830     2.2870    -0.0790 o          1 AL5      -0.529500
     21 N8          -0.9640     0.3980     1.4290 n7         1 AL5      -0.873300
     22 H91         -1.8550     1.5340     2.9810 h1         1 AL5       0.061200
     23 H92         -0.4630     2.3120     2.2130 h1         1 AL5       0.061200
     24 H11          1.7560     2.0010     3.0860 ha         1 AL5       0.117000
     25 H12          3.2320     1.0690     4.8440 ha         1 AL5       0.115000
     26 H14          0.0330    -1.5200     6.1620 ha         1 AL5       0.115000
     27 H15         -1.4460    -0.5900     4.4010 ha         1 AL5       0.117000
     28 H161         3.3790    -0.1210     7.0440 hc         1 AL5       0.044700
     29 H162         2.0690    -1.1770     7.5870 hc         1 AL5       0.044700
     30 H163         3.1900    -1.7330     6.3320 hc         1 AL5       0.044700
     31 HNL1         0.6210    -1.4790    -6.2610 hn         1 AL5       0.481500
     32 HNL2        -0.5240    -1.0720    -5.2190 hn         1 AL5       0.481500
     33 H4           0.0140    -2.7270    -2.8210 ha         1 AL5       0.153000
     34 H5          -1.4340    -2.0910    -0.7390 ha         1 AL5       0.149000
     35 HN8         -0.0490     0.2530     1.0110 hn         1 AL5       0.490000
@<TRIPOS>BOND
     1     1    13 1   
     2     1    14 2   
     3     1    17 1   
     4     2     3 1   
     5     2    21 1   
     6     2    22 1   
     7     2    23 1   
     8     3     4 ar  
     9     3     8 ar  
    10     4     5 ar  
    11     4    24 1   
    12     5     6 ar  
    13     5    25 1   
    14     6     7 ar  
    15     6     9 1   
    16     7     8 ar  
    17     7    26 1   
    18     8    27 1   
    19     9    28 1   
    20     9    29 1   
    21     9    30 1   
    22    10    13 2   
    23    11    13 2   
    24    12    13 1   
    25    12    31 1   
    26    12    32 1   
    27    14    15 1   
    28    14    33 1   
    29    15    16 2   
    30    15    34 1   
    31    16    17 1   
    32    16    18 1   
    33    18    19 2   
    34    18    20 2   
    35    18    21 1   
    36    21    35 1   
@<TRIPOS>SUBSTRUCTURE
     1 AL5         1 TEMP              0 ****  ****    0 ROOT
