@<TRIPOS>MOLECULE
AL7
   42    44     1     0     0
SMALL
No Charge or Current Charge


@<TRIPOS>ATOM
      1 C3          -0.0740     0.4820    -2.9340 cc         1 AL7      -0.424500
      2 C9           1.3910    -1.7180     1.1380 c6         1 AL7       0.202800
      3 C10          1.9190    -0.7000     0.0650 c6         1 AL7       0.197800
      4 C19         -0.3370     2.0440     3.1530 ca         1 AL7      -0.061000
      5 C20         -0.2140     1.7490     4.5200 ca         1 AL7      -0.189000
      6 C21         -0.0060     0.4160     4.9360 ca         1 AL7       0.147100
      7 C22          0.0710    -0.6050     3.9770 ca         1 AL7      -0.116000
      8 C24          0.0680     1.0350     7.3250 c3         1 AL7       0.147900
      9 S1          -0.2410     1.3210    -4.4670 sy         1 AL7       1.176600
     10 O1A         -1.6380     1.6720    -4.7060 o          1 AL7      -0.540500
     11 O2A          0.8610     2.2590    -4.6580 o          1 AL7      -0.540500
     12 S2          -1.4710    -0.2360    -2.1710 ss         1 AL7       0.498000
     13 C6          -0.4750    -0.7540    -0.8370 cc         1 AL7      -0.431500
     14 C5           0.8470    -0.4060    -0.9820 cd         1 AL7      -0.020300
     15 C4           1.0710     0.3160    -2.1900 cd         1 AL7      -0.001000
     16 N8           0.0490    -1.3730     1.6860 nh         1 AL7      -0.762300
     17 S7          -1.1870    -1.5870     0.5380 sy         1 AL7       1.208600
     18 O3B         -1.2460    -3.0150     0.2130 o          1 AL7      -0.521500
     19 O4B         -2.3810    -0.8490     0.9610 o          1 AL7      -0.521500
     20 N15          3.1700    -1.1750    -0.5900 n7         1 AL7      -0.850400
     21 C17         -0.0660    -0.3210     2.6090 ca         1 AL7       0.283000
     22 C18         -0.2580     1.0130     2.2020 ca         1 AL7      -0.154000
     23 H91          1.3660    -2.7200     0.6840 h1         1 AL7       0.087200
     24 H92          2.1180    -1.7810     1.9600 h1         1 AL7       0.087200
     25 H10          2.1410     0.2450     0.5830 h1         1 AL7       0.047700
     26 H161         5.2310    -1.6440    -0.3440 h1         1 AL7       0.036033
     27 H162         4.6370    -0.3520     0.7220 h1         1 AL7       0.036033
     28 H163         4.2180    -2.0500     1.0540 h1         1 AL7       0.036033
     29 H19         -0.4890     3.0720     2.8290 ha         1 AL7       0.118000
     30 H20         -0.2770     2.5620     5.2370 ha         1 AL7       0.121000
     31 H22          0.2350    -1.6290     4.2950 ha         1 AL7       0.142000
     32 H241         0.1990     0.5440     8.2970 h1         1 AL7       0.043033
     33 H242         0.8600     1.7870     7.2140 h1         1 AL7       0.043033
     34 H243        -0.9040     1.5450     7.3310 h1         1 AL7       0.043033
     35 HNL1         0.9170     0.4940    -5.9550 hn         1 AL7       0.482500
     36 HNL2        -0.6270     0.3390    -6.2440 hn         1 AL7       0.482500
     37 H4           2.0390     0.7070    -2.4880 ha         1 AL7       0.146000
     38 HNF          3.4000    -0.5210    -1.3480 hn         1 AL7       0.417000
     39 H18         -0.3420     1.2590     1.1470 ha         1 AL7       0.122000
     40 C16          4.3740    -1.3120     0.2570 c3         1 AL7       0.136100
     41 O23          0.1300     0.0650     6.2640 os         1 AL7      -0.338100
     42 N21          0.0670     0.1310    -5.5310 n8         1 AL7      -1.016100
@<TRIPOS>BOND
     1     1     9 1   
     2     1    12 1   
     3     1    15 2   
     4     2     3 1   
     5     2    16 1   
     6     2    23 1   
     7     2    24 1   
     8     3    14 1   
     9     3    20 1   
    10     3    25 1   
    11     4     5 ar  
    12     4    22 ar  
    13     4    29 1   
    14     5     6 ar  
    15     5    30 1   
    16     6     7 ar  
    17     6    41 1   
    18     7    21 ar  
    19     7    31 1   
    20     8    32 1   
    21     8    33 1   
    22     8    34 1   
    23     8    41 1   
    24     9    10 2   
    25     9    11 2   
    26     9    42 1   
    27    12    13 1   
    28    13    14 2   
    29    13    17 1   
    30    14    15 1   
    31    15    37 1   
    32    16    17 1   
    33    16    21 1   
    34    17    18 2   
    35    17    19 2   
    36    20    38 1   
    37    20    40 1   
    38    21    22 ar  
    39    22    39 1   
    40    26    40 1   
    41    27    40 1   
    42    28    40 1   
    43    35    42 1   
    44    36    42 1   
@<TRIPOS>SUBSTRUCTURE
     1 AL7         1 TEMP              0 ****  ****    0 ROOT
