@<TRIPOS>MOLECULE
AL7
   42    44     1     0     0
SMALL
abcg2


@<TRIPOS>ATOM
      1 C3          -0.1060     0.5020    -2.8950 cc         1 AL7      -0.424500
      2 C9           1.4540    -1.6140     1.1010 c6         1 AL7       0.202800
      3 C10          1.9480    -0.6430     0.0200 c6         1 AL7       0.197800
      4 C19         -0.0170     2.0970     3.2180 ca         1 AL7      -0.061000
      5 C20         -0.0720     1.7520     4.5630 ca         1 AL7      -0.189000
      6 C21         -0.0720     0.4080     4.9280 ca         1 AL7       0.147100
      7 C22         -0.0220    -0.5730     3.9340 ca         1 AL7      -0.116000
      8 C24         -0.1790     0.9080     7.2450 c3         1 AL7       0.147900
      9 S1          -0.3260     1.3110    -4.4390 sy         1 AL7       1.176600
     10 O1A         -1.7650     1.4630    -4.5770 o          1 AL7      -0.540500
     11 O2A          0.5340     2.4780    -4.4940 o          1 AL7      -0.540500
     12 S2          -1.4740    -0.1370    -2.0940 ss         1 AL7       0.498000
     13 C6          -0.4680    -0.6470    -0.8120 cc         1 AL7      -0.431500
     14 C5           0.8580    -0.3410    -0.9790 cd         1 AL7      -0.020300
     15 C4           1.0560     0.3460    -2.2040 cd         1 AL7      -0.001000
     16 N8           0.1400    -1.2680     1.6450 nh         1 AL7      -0.762300
     17 S7          -1.1020    -1.4960     0.5890 sy         1 AL7       1.208600
     18 O3B         -1.1860    -2.9030     0.2540 o          1 AL7      -0.521500
     19 O4B         -2.2790    -0.8130     1.0820 o          1 AL7      -0.521500
     20 N15          3.0890    -1.2390    -0.6550 n7         1 AL7      -0.850400
     21 C17          0.0410    -0.2080     2.6020 ca         1 AL7       0.283000
     22 C18          0.0440     1.1330     2.2280 ca         1 AL7      -0.154000
     23 H91          1.4130    -2.6210     0.6850 h1         1 AL7       0.087200
     24 H92          2.1450    -1.6410     1.9410 h1         1 AL7       0.087200
     25 H10          2.2170     0.3110     0.5040 h1         1 AL7       0.047700
     26 H161         5.1170    -1.6320    -0.4260 h1         1 AL7       0.036033
     27 H162         4.5300    -0.3920     0.6910 h1         1 AL7       0.036033
     28 H163         4.1440    -2.0980     0.9550 h1         1 AL7       0.036033
     29 H19         -0.0190     3.1440     2.9450 ha         1 AL7       0.118000
     30 H20         -0.1130     2.5390     5.3030 ha         1 AL7       0.121000
     31 H22         -0.0300    -1.6200     4.2080 ha         1 AL7       0.142000
     32 H241        -0.2120     0.3380     8.1700 h1         1 AL7       0.043033
     33 H242         0.7040     1.5510     7.2610 h1         1 AL7       0.043033
     34 H243        -1.0740     1.5320     7.1860 h1         1 AL7       0.043033
     35 HNL1         0.6310     0.6460    -6.3410 hn         1 AL7       0.482500
     36 HNL2        -0.2960    -0.5730    -5.6660 hn         1 AL7       0.482500
     37 H4           2.0090     0.7160    -2.5560 ha         1 AL7       0.146000
     38 HNF          3.3340    -0.6780    -1.4600 hn         1 AL7       0.417000
     39 H18          0.0880     1.4280     1.1880 ha         1 AL7       0.122000
     40 C16          4.2700    -1.3330     0.1890 c3         1 AL7       0.136100
     41 O23         -0.1240    -0.0380     6.1940 os         1 AL7      -0.338100
     42 N21          0.3150     0.2140    -5.4780 n8         1 AL7      -1.016100
@<TRIPOS>BOND
     1     1     9 1   
     2     1    12 1   
     3     1    15 2   
     4     2     3 1   
     5     2    16 1   
     6     2    23 1   
     7     2    24 1   
     8     3    14 1   
     9     3    20 1   
    10     3    25 1   
    11     4     5 ar  
    12     4    22 ar  
    13     4    29 1   
    14     5     6 ar  
    15     5    30 1   
    16     6     7 ar  
    17     6    41 1   
    18     7    21 ar  
    19     7    31 1   
    20     8    32 1   
    21     8    33 1   
    22     8    34 1   
    23     8    41 1   
    24     9    10 2   
    25     9    11 2   
    26     9    42 1   
    27    12    13 1   
    28    13    14 2   
    29    13    17 1   
    30    14    15 1   
    31    15    37 1   
    32    16    17 1   
    33    16    21 1   
    34    17    18 2   
    35    17    19 2   
    36    20    38 1   
    37    20    40 1   
    38    21    22 ar  
    39    22    39 1   
    40    26    40 1   
    41    27    40 1   
    42    28    40 1   
    43    35    42 1   
    44    36    42 1   
@<TRIPOS>SUBSTRUCTURE
     1 AL7         1 TEMP              0 ****  ****    0 ROOT
