@<TRIPOS>MOLECULE
AL8
   42    44     1     0     0
SMALL
No Charge or Current Charge


@<TRIPOS>ATOM
      1 C3          -0.1590     0.0750     3.3760 cc         1 AL8      -0.424500
      2 C9           0.9260    -1.2860    -1.1350 c6         1 AL8       0.174800
      3 C10          1.6360    -0.7090     0.1390 c6         1 AL8       0.202800
      4 C19         -1.6460    -0.0990    -5.0530 ca         1 AL8      -0.061000
      5 C20         -0.5890     0.5570    -5.7030 ca         1 AL8      -0.190000
      6 C21          0.5850     0.8740    -4.9880 ca         1 AL8       0.151100
      7 C22          0.6840     0.5330    -3.6320 ca         1 AL8      -0.157000
      8 C24          1.6600     1.9080    -6.9560 c3         1 AL8       0.148900
      9 S1          -0.2020     0.3720     5.1040 sy         1 AL8       1.177600
     10 O1A         -1.5640     0.2180     5.6110 o          1 AL8      -0.539500
     11 O2A          0.9720    -0.2310     5.7280 o          1 AL8      -0.539500
     12 S2          -1.6400     0.0650     2.4460 ss         1 AL8       0.492000
     13 C6          -0.7310    -0.2900     1.0020 cc         1 AL8      -0.428500
     14 C5           0.6180    -0.4140     1.2320 cd         1 AL8      -0.024300
     15 C4           0.9440    -0.2030     2.6010 cd         1 AL8       0.009000
     16 N8          -0.2070    -0.4390    -1.6040 nh         1 AL8      -0.774300
     17 S7          -1.5430    -0.4370    -0.5520 sy         1 AL8       1.212600
     18 O3B         -2.3200     0.7850    -0.7800 o          1 AL8      -0.524500
     19 O4B         -2.1630    -1.7640    -0.6110 o          1 AL8      -0.524500
     20 N15          2.6990    -1.6120     0.6650 n7         1 AL8      -0.868400
     21 C17         -0.3700    -0.1160    -2.9650 ca         1 AL8       0.297000
     22 C18         -1.5370    -0.4340    -3.6930 ca         1 AL8      -0.120000
     23 H91          1.6730    -1.3910    -1.9350 h1         1 AL8       0.075200
     24 H92          0.5670    -2.3020    -0.9140 h1         1 AL8       0.075200
     25 H10          2.1000     0.2470    -0.1500 h1         1 AL8       0.081700
     26 H161         4.6130    -2.4810     0.3410 h1         1 AL8       0.035367
     27 H162         3.5840    -2.4200    -1.1040 h1         1 AL8       0.035367
     28 H163         4.3550    -0.9350    -0.4960 h1         1 AL8       0.035367
     29 H19         -2.5500    -0.3510    -5.6030 ha         1 AL8       0.119000
     30 H20         -0.6970     0.8050    -6.7550 ha         1 AL8       0.121000
     31 H22          1.5870     0.7870    -3.0870 ha         1 AL8       0.129000
     32 H241         2.6070     2.4000    -7.2100 h1         1 AL8       0.043033
     33 H242         1.5440     1.0340    -7.6100 h1         1 AL8       0.043033
     34 H243         0.8450     2.6130    -7.1610 h1         1 AL8       0.043033
     35 HNL1         0.8840     1.9960     5.7890 hn         1 AL8       0.481000
     36 HNL2         0.5580     2.1000     4.2250 hn         1 AL8       0.481000
     37 H4           1.9600    -0.2570     2.9860 ha         1 AL8       0.165000
     38 HNF          2.2720    -2.5090     0.9290 hn         1 AL8       0.427000
     39 H18         -2.3620    -0.9580    -3.2210 ha         1 AL8       0.130000
     40 C16          3.8710    -1.8750    -0.1950 c3         1 AL8       0.149100
     41 O23          1.6590     1.5150    -5.5710 os         1 AL8      -0.342100
     42 N21          0.1120     1.9700     5.1280 n8         1 AL8      -1.020100
@<TRIPOS>BOND
     1     1     9 1   
     2     1    12 1   
     3     1    15 2   
     4     2     3 1   
     5     2    16 1   
     6     2    23 1   
     7     2    24 1   
     8     3    14 1   
     9     3    20 1   
    10     3    25 1   
    11     4     5 ar  
    12     4    22 ar  
    13     4    29 1   
    14     5     6 ar  
    15     5    30 1   
    16     6     7 ar  
    17     6    41 1   
    18     7    21 ar  
    19     7    31 1   
    20     8    32 1   
    21     8    33 1   
    22     8    34 1   
    23     8    41 1   
    24     9    10 2   
    25     9    11 2   
    26     9    42 1   
    27    12    13 1   
    28    13    14 2   
    29    13    17 1   
    30    14    15 1   
    31    15    37 1   
    32    16    17 1   
    33    16    21 1   
    34    17    18 2   
    35    17    19 2   
    36    20    38 1   
    37    20    40 1   
    38    21    22 ar  
    39    22    39 1   
    40    26    40 1   
    41    27    40 1   
    42    28    40 1   
    43    35    42 1   
    44    36    42 1   
@<TRIPOS>SUBSTRUCTURE
     1 AL8         1 TEMP              0 ****  ****    0 ROOT
