@<TRIPOS>MOLECULE
AL8
   42    44     1     0     0
SMALL
abcg2


@<TRIPOS>ATOM
      1 C3           0.2020     0.5830     2.6860 cc         1 AL8      -0.424500
      2 C9           0.6470    -2.1990    -1.1840 c6         1 AL8       0.174800
      3 C10          1.5120    -1.3730    -0.2150 c6         1 AL8       0.202800
      4 C19         -1.3000    -0.2080    -5.0490 ca         1 AL8      -0.061000
      5 C20         -0.3890     0.8330    -5.1790 ca         1 AL8      -0.190000
      6 C21          0.4800     1.1180    -4.1290 ca         1 AL8       0.151100
      7 C22          0.4200     0.3590    -2.9580 ca         1 AL8      -0.157000
      8 C24          1.4710     2.9390    -5.2800 c3         1 AL8       0.148900
      9 S1           0.4150     1.4570     4.1930 sy         1 AL8       1.177600
     10 O1A         -0.7680     1.2390     5.0050 o          1 AL8      -0.539500
     11 O2A          1.7240     1.0840     4.7010 o          1 AL8      -0.539500
     12 S2          -1.3630     0.4190     2.0070 ss         1 AL8       0.492000
     13 C6          -0.6900    -0.4650     0.7050 cc         1 AL8      -0.428500
     14 C5           0.6630    -0.6370     0.7880 cd         1 AL8      -0.024300
     15 C4           1.1800    -0.0150     1.9550 cd         1 AL8       0.009000
     16 N8          -0.5390    -1.5000    -1.6870 nh         1 AL8      -0.774300
     17 S7          -1.6860    -1.1880    -0.5480 sy         1 AL8       1.212600
     18 O3B         -2.6160    -0.2030    -1.0590 o          1 AL8      -0.524500
     19 O4B         -2.1960    -2.4410    -0.0260 o          1 AL8      -0.524500
     20 N15          2.5070    -2.1590     0.4770 n7         1 AL8      -0.868400
     21 C17         -0.4860    -0.6820    -2.8520 ca         1 AL8       0.297000
     22 C18         -1.3560    -0.9740    -3.8980 ca         1 AL8      -0.120000
     23 H91          1.2270    -2.5070    -2.0530 h1         1 AL8       0.075200
     24 H92          0.3240    -3.1140    -0.6810 h1         1 AL8       0.075200
     25 H10          2.0620    -0.6130    -0.7830 h1         1 AL8       0.081700
     26 H161         4.3010    -3.1870     0.2510 h1         1 AL8       0.035367
     27 H162         3.2950    -3.2760    -1.1950 h1         1 AL8       0.035367
     28 H163         4.1250    -1.7750    -0.7830 h1         1 AL8       0.035367
     29 H19         -1.9700    -0.4260    -5.8700 ha         1 AL8       0.119000
     30 H20         -0.3710     1.4040    -6.0980 ha         1 AL8       0.121000
     31 H22          1.0880     0.6090    -2.1440 ha         1 AL8       0.129000
     32 H241         2.2460     3.6720    -5.0710 h1         1 AL8       0.043033
     33 H242         1.7450     2.3820    -6.1790 h1         1 AL8       0.043033
     34 H243         0.5290     3.4640    -5.4620 h1         1 AL8       0.043033
     35 HNL1         0.0280     3.6430     4.4180 hn         1 AL8       0.481000
     36 HNL2         1.2040     3.3490     3.2660 hn         1 AL8       0.481000
     37 H4           2.2260    -0.0260     2.2250 ha         1 AL8       0.165000
     38 HNF          2.0680    -2.9350     0.9580 hn         1 AL8       0.427000
     39 H18         -2.0520    -1.7970    -3.8110 ha         1 AL8       0.130000
     40 C16          3.5940    -2.6300    -0.3620 c3         1 AL8       0.149100
     41 O23          1.3940     2.1020    -4.1420 os         1 AL8      -0.342100
     42 N21          0.3400     3.0160     3.6820 n8         1 AL8      -1.020100
@<TRIPOS>BOND
     1     1     9 1   
     2     1    12 1   
     3     1    15 2   
     4     2     3 1   
     5     2    16 1   
     6     2    23 1   
     7     2    24 1   
     8     3    14 1   
     9     3    20 1   
    10     3    25 1   
    11     4     5 ar  
    12     4    22 ar  
    13     4    29 1   
    14     5     6 ar  
    15     5    30 1   
    16     6     7 ar  
    17     6    41 1   
    18     7    21 ar  
    19     7    31 1   
    20     8    32 1   
    21     8    33 1   
    22     8    34 1   
    23     8    41 1   
    24     9    10 2   
    25     9    11 2   
    26     9    42 1   
    27    12    13 1   
    28    13    14 2   
    29    13    17 1   
    30    14    15 1   
    31    15    37 1   
    32    16    17 1   
    33    16    21 1   
    34    17    18 2   
    35    17    19 2   
    36    20    38 1   
    37    20    40 1   
    38    21    22 ar  
    39    22    39 1   
    40    26    40 1   
    41    27    40 1   
    42    28    40 1   
    43    35    42 1   
    44    36    42 1   
@<TRIPOS>SUBSTRUCTURE
     1 AL8         1 TEMP              0 ****  ****    0 ROOT
