@<TRIPOS>MOLECULE
AL9
   36    37     1     0     0
SMALL
No Charge or Current Charge


@<TRIPOS>ATOM
      1 C3          -0.6590     1.3440    -0.7080 cc         1 AL9      -0.435500
      2 C9           2.6970    -1.6430     2.2740 c3         1 AL9       0.261100
      3 C10          1.1950    -1.4330     2.4400 ca         1 AL9      -0.184300
      4 C11          0.2930    -2.4660     2.1170 ca         1 AL9      -0.060500
      5 C12         -1.0900    -2.2660     2.2580 ca         1 AL9      -0.175500
      6 C13         -1.5900    -1.0400     2.7210 ca         1 AL9       0.156100
      7 C14         -0.6900    -0.0060     3.0570 ca         1 AL9      -0.175500
      8 C15          0.6950    -0.2060     2.9230 ca         1 AL9      -0.060500
      9 O2A         -3.1600     0.4850    -0.6250 o          1 AL9      -0.541500
     10 O1A         -2.6460     2.9650    -0.1520 o          1 AL9      -0.541500
     11 N21         -2.4780     2.0610    -2.4060 n8         1 AL9      -1.016100
     12 S1          -2.3710     1.6980    -0.8230 sy         1 AL9       1.175600
     13 C4           0.3830     2.2380    -0.6250 cd         1 AL9      -0.021000
     14 C5           1.6450     1.5970    -0.5140 cd         1 AL9      -0.030000
     15 C6           1.5410     0.2260    -0.4950 cc         1 AL9      -0.445500
     16 S2          -0.1150    -0.3160    -0.6390 ss         1 AL9       0.511000
     17 S7           2.8390    -0.9490    -0.3370 sy         1 AL9       1.196600
     18 O3B          4.0020    -0.4970    -1.1020 o          1 AL9      -0.534000
     19 O4B          2.2800    -2.2950    -0.4770 o          1 AL9      -0.534000
     20 N8           3.2470    -0.7290     1.2620 n7         1 AL9      -0.882300
     21 O16         -2.9580    -0.9000     2.8290 os         1 AL9      -0.329100
     22 C17         -3.5730     0.3340     3.2420 c3         1 AL9       0.147900
     23 H91          3.1720    -1.4500     3.2470 h1         1 AL9       0.076200
     24 H92          2.9150    -2.6930     2.0270 h1         1 AL9       0.076200
     25 H11          0.6620    -3.4220     1.7480 ha         1 AL9       0.115500
     26 H12         -1.7810    -3.0650     2.0010 ha         1 AL9       0.131500
     27 H14         -1.0430     0.9530     3.4240 ha         1 AL9       0.131500
     28 H15          1.3780     0.5970     3.1920 ha         1 AL9       0.115500
     29 HNL1        -2.8960     2.9860    -2.3550 hn         1 AL9       0.480500
     30 HNL2        -1.5040     2.2440    -2.6330 hn         1 AL9       0.480500
     31 H4           0.2620     3.3180    -0.6360 ha         1 AL9       0.154000
     32 H5           2.5850     2.1380    -0.4400 ha         1 AL9       0.141000
     33 HN8          2.8160     0.1780     1.4170 hn         1 AL9       0.490000
     34 H171        -4.6650     0.2320     3.2450 h1         1 AL9       0.042700
     35 H172        -3.2550     0.6070     4.2560 h1         1 AL9       0.042700
     36 H173        -3.3090     1.1490     2.5570 h1         1 AL9       0.042700
@<TRIPOS>BOND
     1     1    12 1   
     2     1    13 2   
     3     1    16 1   
     4     2     3 1   
     5     2    20 1   
     6     2    23 1   
     7     2    24 1   
     8     3     4 ar  
     9     3     8 ar  
    10     4     5 ar  
    11     4    25 1   
    12     5     6 ar  
    13     5    26 1   
    14     6     7 ar  
    15     6    21 1   
    16     7     8 ar  
    17     7    27 1   
    18     8    28 1   
    19     9    12 2   
    20    10    12 2   
    21    11    12 1   
    22    11    29 1   
    23    11    30 1   
    24    13    14 1   
    25    13    31 1   
    26    14    15 2   
    27    14    32 1   
    28    15    16 1   
    29    15    17 1   
    30    17    18 2   
    31    17    19 2   
    32    17    20 1   
    33    20    33 1   
    34    21    22 1   
    35    22    34 1   
    36    22    35 1   
    37    22    36 1   
@<TRIPOS>SUBSTRUCTURE
     1 AL9         1 TEMP              0 ****  ****    0 ROOT
