@<TRIPOS>MOLECULE
AL9
   36    37     1     0     0
SMALL
abcg2


@<TRIPOS>ATOM
      1 C3          -0.7330     0.7270    -0.9730 cc         1 AL9      -0.435500
      2 C9           2.2510    -2.0140     1.7510 c3         1 AL9       0.261100
      3 C10          0.9300    -1.4170     2.1650 ca         1 AL9      -0.184300
      4 C11         -0.2530    -1.7440     1.5070 ca         1 AL9      -0.060500
      5 C12         -1.4510    -1.1400     1.8410 ca         1 AL9      -0.175500
      6 C13         -1.4970    -0.1880     2.8590 ca         1 AL9       0.156100
      7 C14         -0.3260     0.1300     3.5460 ca         1 AL9      -0.175500
      8 C15          0.8660    -0.4880     3.1950 ca         1 AL9      -0.060500
      9 O2A         -2.7280    -0.8060    -1.6610 o          1 AL9      -0.541500
     10 O1A         -3.1810     1.5000    -0.7920 o          1 AL9      -0.541500
     11 N21         -2.1610     1.0940    -3.1440 n8         1 AL9      -1.016100
     12 S1          -2.3680     0.5990    -1.5900 sy         1 AL9       1.175600
     13 C4          -0.3120     1.5890    -0.0030 cd         1 AL9      -0.021000
     14 C5           1.0410     1.3700     0.3350 cd         1 AL9      -0.030000
     15 C6           1.5770     0.3440    -0.3860 cc         1 AL9      -0.445500
     16 S2           0.4790    -0.3620    -1.4900 ss         1 AL9       0.511000
     17 S7           3.1680    -0.3810    -0.1980 sy         1 AL9       1.196600
     18 O3B          4.1670     0.6680    -0.2320 o          1 AL9      -0.534000
     19 O4B          3.1850    -1.4650    -1.1640 o          1 AL9      -0.534000
     20 N8           3.2370    -1.0290     1.2990 n7         1 AL9      -0.882300
     21 O16         -2.6980     0.3650     3.1080 os         1 AL9      -0.329100
     22 C17         -2.7830     1.3870     4.0800 c3         1 AL9       0.147900
     23 H91          2.7210    -2.5360     2.5850 h1         1 AL9       0.076200
     24 H92          2.1140    -2.7540     0.9630 h1         1 AL9       0.076200
     25 H11         -0.2400    -2.4740     0.7080 ha         1 AL9       0.115500
     26 H12         -2.3570    -1.3910     1.3030 ha         1 AL9       0.131500
     27 H14         -0.3180     0.8560     4.3470 ha         1 AL9       0.131500
     28 H15          1.7640    -0.2160     3.7410 ha         1 AL9       0.115500
     29 HNL1        -2.9050     0.7610    -3.7510 hn         1 AL9       0.480500
     30 HNL2        -2.0460     2.0990    -3.2320 hn         1 AL9       0.480500
     31 H4          -0.9400     2.3370     0.4580 ha         1 AL9       0.154000
     32 H5           1.5730     1.9270     1.0920 ha         1 AL9       0.141000
     33 HN8          3.5340    -0.3610     2.0010 hn         1 AL9       0.490000
     34 H171        -3.8200     1.7130     4.0970 h1         1 AL9       0.042700
     35 H172        -2.5130     1.0300     5.0770 h1         1 AL9       0.042700
     36 H173        -2.1510     2.2430     3.8300 h1         1 AL9       0.042700
@<TRIPOS>BOND
     1     1    12 1   
     2     1    13 2   
     3     1    16 1   
     4     2     3 1   
     5     2    20 1   
     6     2    23 1   
     7     2    24 1   
     8     3     4 ar  
     9     3     8 ar  
    10     4     5 ar  
    11     4    25 1   
    12     5     6 ar  
    13     5    26 1   
    14     6     7 ar  
    15     6    21 1   
    16     7     8 ar  
    17     7    27 1   
    18     8    28 1   
    19     9    12 2   
    20    10    12 2   
    21    11    12 1   
    22    11    29 1   
    23    11    30 1   
    24    13    14 1   
    25    13    31 1   
    26    14    15 2   
    27    14    32 1   
    28    15    16 1   
    29    15    17 1   
    30    17    18 2   
    31    17    19 2   
    32    17    20 1   
    33    20    33 1   
    34    21    22 1   
    35    22    34 1   
    36    22    35 1   
    37    22    36 1   
@<TRIPOS>SUBSTRUCTURE
     1 AL9         1 TEMP              0 ****  ****    0 ROOT
