@<TRIPOS>MOLECULE
ALC
   28    28     1     0     0
SMALL
bcc


@<TRIPOS>ATOM
      1 N            5.2360    20.1930    15.0100 n8         1 ALC      -0.878800
      2 CA           4.2250    20.4790    16.0220 c3         1 ALC       0.014500
      3 C            2.8170    20.1780    15.4570 c          1 ALC       0.934600
      4 O            2.6440    20.3820    14.2380 o          1 ALC      -0.838800
      5 CB           4.2440    21.9260    16.5620 c3         1 ALC      -0.087400
      6 CG           5.1360    22.1600    17.7820 c6         1 ALC      -0.061700
      7 CD2          5.0810    23.6290    18.2090 c6         1 ALC      -0.072900
      8 CE2          5.9230    23.9100    19.4480 c6         1 ALC      -0.073400
      9 CZ           7.3690    23.4710    19.2440 c6         1 ALC      -0.071400
     10 CE1          7.4350    22.0050    18.8340 c6         1 ALC      -0.073400
     11 CD1          6.5910    21.7290    17.5930 c6         1 ALC      -0.072900
     12 OXT          1.9600    19.8020    16.2820 o          1 ALC      -0.838800
     13 H            6.1150    20.6280    15.2570 hn         1 ALC       0.320300
     14 H2           4.9330    20.6310    14.1490 hn         1 ALC       0.320300
     15 HA           4.3870    19.8040    16.8700 h1         1 ALC       0.045700
     16 HB2          4.5430    22.6000    15.7510 hc         1 ALC       0.036700
     17 HB3          3.2320    22.2300    16.8500 hc         1 ALC       0.036700
     18 HG           4.7240    21.5590    18.6050 hc         1 ALC       0.046700
     19 HD23         5.4420    24.2490    17.3800 hc         1 ALC       0.037700
     20 HD22         4.0420    23.9230    18.3830 hc         1 ALC       0.037700
     21 HE23         5.8790    24.9730    19.6990 hc         1 ALC       0.028200
     22 HE22         5.5010    23.3710    20.3040 hc         1 ALC       0.028200
     23 HZ3          7.8280    24.0870    18.4640 hc         1 ALC       0.025200
     24 HZ2          7.9510    23.6380    20.1540 hc         1 ALC       0.025200
     25 HE13         8.4700    21.7060    18.6550 hc         1 ALC       0.028200
     26 HE12         7.0710    21.3840    19.6600 hc         1 ALC       0.028200
     27 HD12         6.6470    20.6630    17.3570 hc         1 ALC       0.037700
     28 HD13         7.0190    22.2670    16.7380 hc         1 ALC       0.037700
@<TRIPOS>BOND
     1     1     2 1   
     2     1    13 1   
     3     1    14 1   
     4     2     3 1   
     5     2     5 1   
     6     2    15 1   
     7     3     4 1   
     8     3    12 1   
     9     5     6 1   
    10     5    16 1   
    11     5    17 1   
    12     6     7 1   
    13     6    11 1   
    14     6    18 1   
    15     7     8 1   
    16     7    19 1   
    17     7    20 1   
    18     8     9 1   
    19     8    21 1   
    20     8    22 1   
    21     9    10 1   
    22     9    23 1   
    23     9    24 1   
    24    10    11 1   
    25    10    25 1   
    26    10    26 1   
    27    11    27 1   
    28    11    28 1   
@<TRIPOS>SUBSTRUCTURE
     1 ALC         1 TEMP              0 ****  ****    0 ROOT
