@<TRIPOS>MOLECULE
ALC
   28    28     1     0     0
SMALL
No Charge or Current Charge


@<TRIPOS>ATOM
      1 N            5.2730    20.0710    15.1330 n8         1 ALC      -0.878800
      2 CA           4.1000    20.4530    16.0060 c3         1 ALC       0.014500
      3 C            2.6470    20.2080    15.3980 c          1 ALC       0.934600
      4 O            2.3470    20.7490    14.3360 o          1 ALC      -0.838800
      5 CB           4.2510    21.9210    16.5090 c3         1 ALC      -0.087400
      6 CG           5.1580    22.1560    17.7650 c6         1 ALC      -0.061700
      7 CD2          5.0640    23.6410    18.2230 c6         1 ALC      -0.072900
      8 CE2          5.9230    23.9160    19.4810 c6         1 ALC      -0.073400
      9 CZ           7.3990    23.5210    19.2450 c6         1 ALC      -0.071400
     10 CE1          7.5100    22.0420    18.8070 c6         1 ALC      -0.073400
     11 CD1          6.6490    21.7550    17.5510 c6         1 ALC      -0.072900
     12 OXT          1.8950    19.4220    15.9670 o          1 ALC      -0.838800
     13 H            6.1360    20.4020    15.5740 hn         1 ALC       0.320300
     14 H2           5.2140    20.5940    14.2530 hn         1 ALC       0.320300
     15 HA           4.1510    19.8090    16.8950 h1         1 ALC       0.045700
     16 HB2          4.5850    22.5550    15.6780 hc         1 ALC       0.036700
     17 HB3          3.2460    22.2810    16.7590 hc         1 ALC       0.036700
     18 HG           4.7440    21.5260    18.5660 hc         1 ALC       0.046700
     19 HD23         5.3900    24.3030    17.4080 hc         1 ALC       0.037700
     20 HD22         4.0190    23.9030    18.4350 hc         1 ALC       0.037700
     21 HE23         5.8610    24.9790    19.7500 hc         1 ALC       0.028200
     22 HE22         5.5210    23.3530    20.3350 hc         1 ALC       0.028200
     23 HZ3          7.8390    24.1710    18.4750 hc         1 ALC       0.025200
     24 HZ2          7.9810    23.6840    20.1620 hc         1 ALC       0.025200
     25 HE13         8.5610    21.7940    18.6020 hc         1 ALC       0.028200
     26 HE12         7.1910    21.3890    19.6310 hc         1 ALC       0.028200
     27 HD12         6.7270    20.6840    17.3230 hc         1 ALC       0.037700
     28 HD13         7.0630    22.2960    16.6880 hc         1 ALC       0.037700
@<TRIPOS>BOND
     1     1     2 1   
     2     1    13 1   
     3     1    14 1   
     4     2     3 1   
     5     2     5 1   
     6     2    15 1   
     7     3     4 1   
     8     3    12 1   
     9     5     6 1   
    10     5    16 1   
    11     5    17 1   
    12     6     7 1   
    13     6    11 1   
    14     6    18 1   
    15     7     8 1   
    16     7    19 1   
    17     7    20 1   
    18     8     9 1   
    19     8    21 1   
    20     8    22 1   
    21     9    10 1   
    22     9    23 1   
    23     9    24 1   
    24    10    11 1   
    25    10    25 1   
    26    10    26 1   
    27    11    27 1   
    28    11    28 1   
@<TRIPOS>SUBSTRUCTURE
     1 ALC         1 TEMP              0 ****  ****    0 ROOT
