@<TRIPOS>MOLECULE
ALD
   77    77     1     0     0
SMALL
No Charge or Current Charge


@<TRIPOS>ATOM
      1 C9           3.4330     1.2140     0.1470 c          1 ALD       0.638100
      2 O31          3.4390     2.2620     0.7730 o          1 ALD      -0.548000
      3 O8           4.5270     0.5500    -0.3090 os         1 ALD      -0.455100
      4 C7           5.8130     1.1330    -0.0480 c3         1 ALD       0.231900
      5 C3           6.8820     0.2280    -0.6460 ca         1 ALD      -0.102300
      6 C4           7.3120     0.4180    -1.9740 ca         1 ALD      -0.084000
      7 C5           8.2990    -0.4180    -2.5260 ca         1 ALD      -0.116000
      8 C6           8.8610    -1.4490    -1.7530 ca         1 ALD      -0.097000
      9 C1           8.4340    -1.6440    -0.4290 ca         1 ALD      -0.116000
     10 C2           7.4470    -0.8090     0.1230 ca         1 ALD      -0.084000
     11 N10          2.3160     0.5050    -0.1860 ns         1 ALD      -0.490900
     12 C11          0.9280     0.9050     0.1240 c3         1 ALD       0.049700
     13 C12          0.0070    -0.3490     0.0820 c          1 ALD       0.599100
     14 O32          0.2120    -1.2990    -0.6640 o          1 ALD      -0.613100
     15 C30          0.4650     2.0030    -0.8800 c3         1 ALD      -0.096400
     16 C31         -0.9780     2.5550    -0.6940 c3         1 ALD      -0.059700
     17 C32         -1.1800     3.2570     0.6700 c3         1 ALD      -0.089600
     18 C33         -1.3570     3.5040    -1.8530 c3         1 ALD      -0.089600
     19 N13         -1.0690    -0.3140     0.9440 ns         1 ALD      -0.485900
     20 C14         -2.1860    -1.2820     0.9630 c3         1 ALD       0.030700
     21 C15         -3.5140    -0.4870     1.0870 c          1 ALD       0.583100
     22 O34         -3.5930     0.5770     1.6880 o          1 ALD      -0.620100
     23 C24         -2.0400    -2.2940     2.1330 c3         1 ALD      -0.082400
     24 C25         -0.8440    -3.2820     2.0330 c3         1 ALD      -0.058700
     25 C26         -0.6630    -4.0630     3.3540 c3         1 ALD      -0.091600
     26 C27         -0.9780    -4.2590     0.8400 c3         1 ALD      -0.091600
     27 N16         -4.5950    -1.0500     0.4460 ns         1 ALD      -0.486900
     28 C17         -5.9220    -0.4330     0.3140 c3         1 ALD       0.111700
     29 C22         -7.0310    -1.4780     0.6220 c3         1 ALD       0.142600
     30 C18         -6.0930     0.2200    -1.0880 c3         1 ALD      -0.085400
     31 C19         -5.1270     1.3970    -1.4180 c3         1 ALD      -0.058700
     32 C20         -5.2120     1.7830    -2.9120 c3         1 ALD      -0.091100
     33 C21         -5.3720     2.6370    -0.5250 c3         1 ALD      -0.091100
     34 O33         -6.8940    -2.6450    -0.2090 oh         1 ALD      -0.667000
     35 H71          5.8860     2.1330    -0.4970 h1         1 ALD       0.056200
     36 H72          5.9820     1.2360     1.0330 h1         1 ALD       0.056200
     37 H4           6.8800     1.2120    -2.5800 ha         1 ALD       0.114500
     38 H5           8.6280    -0.2670    -3.5520 ha         1 ALD       0.114000
     39 H6           9.6250    -2.0950    -2.1810 ha         1 ALD       0.113000
     40 H1           8.8680    -2.4420     0.1690 ha         1 ALD       0.114000
     41 H2           7.1210    -0.9690     1.1490 ha         1 ALD       0.114500
     42 HNA          2.4730    -0.3570    -0.6960 hn         1 ALD       0.342500
     43 H11          0.9060     1.3030     1.1460 h1         1 ALD       0.088700
     44 H301         1.1670     2.8450    -0.8320 hc         1 ALD       0.057200
     45 H302         0.5520     1.5930    -1.8940 hc         1 ALD       0.057200
     46 H31         -1.6810     1.7150    -0.7440 hc         1 ALD       0.050700
     47 H321        -2.2080     3.6280     0.7630 hc         1 ALD       0.035367
     48 H322        -1.0010     2.5720     1.5060 hc         1 ALD       0.035367
     49 H323        -0.4980     4.1100     0.7740 hc         1 ALD       0.035367
     50 H331        -1.2820     2.9880    -2.8180 hc         1 ALD       0.035367
     51 H332        -2.3890     3.8590    -1.7440 hc         1 ALD       0.035367
     52 H333        -0.6940     4.3770    -1.8770 hc         1 ALD       0.035367
     53 HND         -1.1670     0.5180     1.5150 hn         1 ALD       0.334500
     54 H14         -2.2220    -1.8170     0.0060 h1         1 ALD       0.090700
     55 H241        -1.9590    -1.7260     3.0680 hc         1 ALD       0.052700
     56 H242        -2.9660    -2.8780     2.2120 hc         1 ALD       0.052700
     57 H25          0.0710    -2.6960     1.8830 hc         1 ALD       0.054700
     58 H261        -1.5470    -4.6740     3.5720 hc         1 ALD       0.035533
     59 H262         0.2090    -4.7270     3.2970 hc         1 ALD       0.035533
     60 H263        -0.5050    -3.3750     4.1940 hc         1 ALD       0.035533
     61 H271        -1.8910    -4.8610     0.9290 hc         1 ALD       0.035533
     62 H272        -1.0120    -3.7250    -0.1150 hc         1 ALD       0.035533
     63 H273        -0.1220    -4.9430     0.8050 hc         1 ALD       0.035533
     64 HNG         -4.4550    -1.9480    -0.0020 hn         1 ALD       0.326500
     65 H17         -6.0230     0.3540     1.0730 h1         1 ALD       0.084700
     66 H221        -6.9570    -1.7630     1.6810 h1         1 ALD       0.030200
     67 H222        -8.0150    -1.0140     0.4750 h1         1 ALD       0.030200
     68 H181        -5.9680    -0.5620    -1.8470 hc         1 ALD       0.051700
     69 H182        -7.1250     0.5780    -1.1880 hc         1 ALD       0.051700
     70 H19         -4.0990     1.0580    -1.2420 hc         1 ALD       0.048700
     71 H201        -4.4970     2.5800    -3.1480 hc         1 ALD       0.034700
     72 H202        -4.9770     0.9220    -3.5500 hc         1 ALD       0.034700
     73 H203        -6.2190     2.1360    -3.1680 hc         1 ALD       0.034700
     74 H211        -5.2250     2.4050     0.5350 hc         1 ALD       0.034700
     75 H212        -4.6760     3.4440    -0.7850 hc         1 ALD       0.034700
     76 H213        -6.3930     3.0150    -0.6540 hc         1 ALD       0.034700
     77 HOX         -7.6270    -3.2570     0.0310 ho         1 ALD       0.446000
@<TRIPOS>BOND
     1     1     2 2   
     2     1     3 1   
     3     1    11 1   
     4     3     4 1   
     5     4     5 1   
     6     4    35 1   
     7     4    36 1   
     8     5     6 ar  
     9     5    10 ar  
    10     6     7 ar  
    11     6    37 1   
    12     7     8 ar  
    13     7    38 1   
    14     8     9 ar  
    15     8    39 1   
    16     9    10 ar  
    17     9    40 1   
    18    10    41 1   
    19    11    12 1   
    20    11    42 1   
    21    12    13 1   
    22    12    15 1   
    23    12    43 1   
    24    13    14 2   
    25    13    19 1   
    26    15    16 1   
    27    15    44 1   
    28    15    45 1   
    29    16    17 1   
    30    16    18 1   
    31    16    46 1   
    32    17    47 1   
    33    17    48 1   
    34    17    49 1   
    35    18    50 1   
    36    18    51 1   
    37    18    52 1   
    38    19    20 1   
    39    19    53 1   
    40    20    21 1   
    41    20    23 1   
    42    20    54 1   
    43    21    22 2   
    44    21    27 1   
    45    23    24 1   
    46    23    55 1   
    47    23    56 1   
    48    24    25 1   
    49    24    26 1   
    50    24    57 1   
    51    25    58 1   
    52    25    59 1   
    53    25    60 1   
    54    26    61 1   
    55    26    62 1   
    56    26    63 1   
    57    27    28 1   
    58    27    64 1   
    59    28    29 1   
    60    28    30 1   
    61    28    65 1   
    62    29    34 1   
    63    29    66 1   
    64    29    67 1   
    65    30    31 1   
    66    30    68 1   
    67    30    69 1   
    68    31    32 1   
    69    31    33 1   
    70    31    70 1   
    71    32    71 1   
    72    32    72 1   
    73    32    73 1   
    74    33    74 1   
    75    33    75 1   
    76    33    76 1   
    77    34    77 1   
@<TRIPOS>SUBSTRUCTURE
     1 ALD         1 TEMP              0 ****  ****    0 ROOT
