@<TRIPOS>MOLECULE
ALD
   77    77     1     0     0
SMALL
abcg2


@<TRIPOS>ATOM
      1 C9           3.2460     0.9420     0.3460 c          1 ALD       0.638100
      2 O31          3.2410     1.7820     1.2230 o          1 ALD      -0.548000
      3 O8           4.3570     0.4100    -0.1730 os         1 ALD      -0.455100
      4 C7           5.6060     0.8840     0.3440 c3         1 ALD       0.231900
      5 C3           6.6890     0.1700    -0.4060 ca         1 ALD      -0.102300
      6 C4           7.2160     0.7150    -1.5730 ca         1 ALD      -0.084000
      7 C5           8.2040     0.0440    -2.2810 ca         1 ALD      -0.116000
      8 C6           8.6720    -1.1830    -1.8280 ca         1 ALD      -0.097000
      9 C1           8.1500    -1.7340    -0.6650 ca         1 ALD      -0.116000
     10 C2           7.1620    -1.0610     0.0410 ca         1 ALD      -0.084000
     11 N10          2.1500     0.4060    -0.2220 ns         1 ALD      -0.490900
     12 C11          0.8230     0.9150     0.0410 c3         1 ALD       0.049700
     13 C12         -0.1550    -0.2460    -0.0900 c          1 ALD       0.599100
     14 O32         -0.1600    -0.9400    -1.0970 o          1 ALD      -0.613100
     15 C30          0.4460     2.0260    -0.9470 c3         1 ALD      -0.096400
     16 C31         -0.9490     2.6320    -0.7790 c3         1 ALD      -0.059700
     17 C32         -1.1580     3.2470     0.6010 c3         1 ALD      -0.089600
     18 C33         -1.1700     3.6800    -1.8670 c3         1 ALD      -0.089600
     19 N13         -0.9900    -0.4080     0.9450 ns         1 ALD      -0.485900
     20 C14         -2.1080    -1.3220     0.9580 c3         1 ALD       0.030700
     21 C15         -3.3830    -0.5010     1.1450 c          1 ALD       0.583100
     22 O34         -3.4270     0.3870     1.9850 o          1 ALD      -0.620100
     23 C24         -2.0000    -2.3480     2.0900 c3         1 ALD      -0.082400
     24 C25         -0.7670    -3.2480     2.0270 c3         1 ALD      -0.058700
     25 C26         -0.7140    -4.1290     3.2720 c3         1 ALD      -0.091600
     26 C27         -0.7410    -4.1090     0.7670 c3         1 ALD      -0.091600
     27 N16         -4.4010    -0.8490     0.3530 ns         1 ALD      -0.486900
     28 C17         -5.7170    -0.2390     0.3840 c3         1 ALD       0.111700
     29 C22         -6.7230    -1.1590     1.0600 c3         1 ALD       0.142600
     30 C18         -6.1500     0.1760    -1.0220 c3         1 ALD      -0.085400
     31 C19         -5.1760     1.0960    -1.7600 c3         1 ALD      -0.058700
     32 C20         -5.7270     1.4190    -3.1460 c3         1 ALD      -0.091100
     33 C21         -4.8880     2.3800    -0.9870 c3         1 ALD      -0.091100
     34 O33         -6.8350    -2.3510     0.3180 oh         1 ALD      -0.667000
     35 H71          5.6860     1.9640     0.2030 h1         1 ALD       0.056200
     36 H72          5.6730     0.6760     1.4140 h1         1 ALD       0.056200
     37 H4           6.8580     1.6740    -1.9270 ha         1 ALD       0.114500
     38 H5           8.6100     0.4800    -3.1850 ha         1 ALD       0.114000
     39 H6           9.4440    -1.7060    -2.3770 ha         1 ALD       0.113000
     40 H1           8.5130    -2.6890    -0.3070 ha         1 ALD       0.114000
     41 H2           6.7620    -1.4930     0.9500 ha         1 ALD       0.114500
     42 HNA          2.2640    -0.1930    -1.0270 hn         1 ALD       0.342500
     43 H11          0.8140     1.3080     1.0580 h1         1 ALD       0.088700
     44 H301         1.1920     2.8210    -0.8460 hc         1 ALD       0.057200
     45 H302         0.5490     1.6300    -1.9620 hc         1 ALD       0.057200
     46 H31         -1.7030     1.8470    -0.9170 hc         1 ALD       0.050700
     47 H321        -2.1270     3.7450     0.6540 hc         1 ALD       0.035367
     48 H322        -1.1410     2.5040     1.3990 hc         1 ALD       0.035367
     49 H323        -0.3890     3.9930     0.8170 hc         1 ALD       0.035367
     50 H331        -1.0670     3.2480    -2.8640 hc         1 ALD       0.035367
     51 H332        -2.1660     4.1180    -1.7950 hc         1 ALD       0.035367
     52 H333        -0.4450     4.4920    -1.7780 hc         1 ALD       0.035367
     53 HND         -0.9040     0.2080     1.7380 hn         1 ALD       0.334500
     54 H14         -2.1240    -1.8340    -0.0040 h1         1 ALD       0.090700
     55 H241        -2.0110    -1.8160     3.0460 hc         1 ALD       0.052700
     56 H242        -2.9020    -2.9700     2.0710 hc         1 ALD       0.052700
     57 H25          0.1230    -2.6090     2.0280 hc         1 ALD       0.054700
     58 H261        -1.5770    -4.7980     3.3120 hc         1 ALD       0.035533
     59 H262         0.1850    -4.7470     3.2770 hc         1 ALD       0.035533
     60 H263        -0.7130    -3.5330     4.1860 hc         1 ALD       0.035533
     61 H271        -1.6310    -4.7420     0.7150 hc         1 ALD       0.035533
     62 H272        -0.6980    -3.5130    -0.1440 hc         1 ALD       0.035533
     63 H273         0.1310    -4.7650     0.7660 hc         1 ALD       0.035533
     64 HNG         -4.2650    -1.6070    -0.2970 hn         1 ALD       0.326500
     65 H17         -5.6480     0.6490     1.0140 h1         1 ALD       0.084700
     66 H221        -6.3830    -1.3540     2.0850 h1         1 ALD       0.030200
     67 H222        -7.6820    -0.6290     1.1330 h1         1 ALD       0.030200
     68 H181        -6.3250    -0.7170    -1.6290 hc         1 ALD       0.051700
     69 H182        -7.1200     0.6800    -0.9360 hc         1 ALD       0.051700
     70 H19         -4.2320     0.5550    -1.8950 hc         1 ALD       0.048700
     71 H201        -5.0250     2.0290    -3.7170 hc         1 ALD       0.034700
     72 H202        -5.9230     0.5100    -3.7190 hc         1 ALD       0.034700
     73 H203        -6.6660     1.9730    -3.0740 hc         1 ALD       0.034700
     74 H211        -4.3790     2.1920    -0.0420 hc         1 ALD       0.034700
     75 H212        -4.2490     3.0470    -1.5690 hc         1 ALD       0.034700
     76 H213        -5.8140     2.9170    -0.7670 hc         1 ALD       0.034700
     77 HOX         -7.4220    -2.9480     0.7890 ho         1 ALD       0.446000
@<TRIPOS>BOND
     1     1     2 2   
     2     1     3 1   
     3     1    11 1   
     4     3     4 1   
     5     4     5 1   
     6     4    35 1   
     7     4    36 1   
     8     5     6 ar  
     9     5    10 ar  
    10     6     7 ar  
    11     6    37 1   
    12     7     8 ar  
    13     7    38 1   
    14     8     9 ar  
    15     8    39 1   
    16     9    10 ar  
    17     9    40 1   
    18    10    41 1   
    19    11    12 1   
    20    11    42 1   
    21    12    13 1   
    22    12    15 1   
    23    12    43 1   
    24    13    14 2   
    25    13    19 1   
    26    15    16 1   
    27    15    44 1   
    28    15    45 1   
    29    16    17 1   
    30    16    18 1   
    31    16    46 1   
    32    17    47 1   
    33    17    48 1   
    34    17    49 1   
    35    18    50 1   
    36    18    51 1   
    37    18    52 1   
    38    19    20 1   
    39    19    53 1   
    40    20    21 1   
    41    20    23 1   
    42    20    54 1   
    43    21    22 2   
    44    21    27 1   
    45    23    24 1   
    46    23    55 1   
    47    23    56 1   
    48    24    25 1   
    49    24    26 1   
    50    24    57 1   
    51    25    58 1   
    52    25    59 1   
    53    25    60 1   
    54    26    61 1   
    55    26    62 1   
    56    26    63 1   
    57    27    28 1   
    58    27    64 1   
    59    28    29 1   
    60    28    30 1   
    61    28    65 1   
    62    29    34 1   
    63    29    66 1   
    64    29    67 1   
    65    30    31 1   
    66    30    68 1   
    67    30    69 1   
    68    31    32 1   
    69    31    33 1   
    70    31    70 1   
    71    32    71 1   
    72    32    72 1   
    73    32    73 1   
    74    33    74 1   
    75    33    75 1   
    76    33    76 1   
    77    34    77 1   
@<TRIPOS>SUBSTRUCTURE
     1 ALD         1 TEMP              0 ****  ****    0 ROOT
