@<TRIPOS>MOLECULE
ALE
   26    26     1     0     0
SMALL
bcc


@<TRIPOS>ATOM
      1 C1          -0.0360     0.1230     0.2560 ca         1 ALE      -0.116300
      2 C2           0.9060    -0.8670     0.5230 ca         1 ALE      -0.159000
      3 C3           2.2200    -0.7390     0.1010 ca         1 ALE       0.045100
      4 C4           2.6200     0.4050    -0.6000 ca         1 ALE       0.126100
      5 C5           1.6830     1.3920    -0.8670 ca         1 ALE      -0.138000
      6 C6           0.3670     1.2530    -0.4460 ca         1 ALE      -0.118000
      7 O1           3.1790    -1.6650     0.3300 oh         1 ALE      -0.518100
      8 O2           3.8920     0.5710    -1.0220 oh         1 ALE      -0.494100
      9 O3          -1.8910     1.0180     1.5500 oh         1 ALE      -0.585800
     10 C9          -4.6670    -0.6960    -1.1480 c3         1 ALE       0.144100
     11 C8          -2.4030    -0.2390    -0.4710 c3         1 ALE       0.125800
     12 C7          -1.4660    -0.0440     0.7170 c3         1 ALE       0.191400
     13 H2           0.6110    -1.7560     1.0710 ha         1 ALE       0.134000
     14 H6          -0.3360     2.0430    -0.6810 ha         1 ALE       0.129000
     15 H7          -1.5280    -0.9400     1.3410 h1         1 ALE       0.089700
     16 H1           2.8270    -2.4090     0.8300 ho         1 ALE       0.437000
     17 H5           1.9930     2.2760    -1.4100 ha         1 ALE       0.150000
     18 HA           4.4430    -0.1650    -0.7300 ho         1 ALE       0.444000
     19 H3          -1.9070     1.8310     1.0340 ho         1 ALE       0.396000
     20 H91C        -4.4140    -1.5960    -1.7120 h1         1 ALE       0.029367
     21 H92C        -5.6830    -0.8200    -0.7730 h1         1 ALE       0.029367
     22 H93C        -4.6700     0.1450    -1.8570 h1         1 ALE       0.029367
     23 HB          -4.0800     0.2310     0.5440 hn         1 ALE       0.360800
     24 H81C        -2.0330    -1.0830    -1.0600 h1         1 ALE       0.035200
     25 H82C        -2.3420     0.6450    -1.1320 h1         1 ALE       0.035200
     26 N1          -3.7520    -0.5280    -0.0380 n7         1 ALE      -0.800200
@<TRIPOS>BOND
     1     1     2 ar  
     2     1     6 ar  
     3     1    12 1   
     4     2     3 ar  
     5     2    13 1   
     6     3     4 ar  
     7     3     7 1   
     8     4     5 ar  
     9     4     8 1   
    10     5     6 ar  
    11     5    17 1   
    12     6    14 1   
    13     7    16 1   
    14     8    18 1   
    15     9    12 1   
    16     9    19 1   
    17    10    20 1   
    18    10    21 1   
    19    10    22 1   
    20    10    26 1   
    21    11    12 1   
    22    11    24 1   
    23    11    25 1   
    24    11    26 1   
    25    12    15 1   
    26    23    26 1   
@<TRIPOS>SUBSTRUCTURE
     1 ALE         1 TEMP              0 ****  ****    0 ROOT
