@<TRIPOS>MOLECULE
ALE
   26    26     1     0     0
SMALL
No Charge or Current Charge


@<TRIPOS>ATOM
      1 C1          -0.0010     0.0090     0.1800 ca         1 ALE      -0.116300
      2 C2           1.0280    -0.8500     0.6230 ca         1 ALE      -0.141000
      3 C3           2.3590    -0.6310     0.2260 ca         1 ALE       0.045100
      4 C4           2.6700     0.4550    -0.6170 ca         1 ALE       0.126100
      5 C5           1.6560     1.3170    -1.0580 ca         1 ALE      -0.120000
      6 C6           0.3250     1.0970    -0.6600 ca         1 ALE      -0.100000
      7 O1           3.3550    -1.4700     0.6570 oh         1 ALE      -0.557100
      8 O2           3.9640     0.6610    -0.9970 oh         1 ALE      -0.533100
      9 O3          -1.8250     0.7550     1.5870 oh         1 ALE      -0.648000
     10 C9          -4.8750    -0.5180    -1.1460 c3         1 ALE       0.144100
     11 C8          -2.4580    -0.2690    -0.5610 c3         1 ALE       0.125800
     12 C7          -1.4440    -0.2440     0.6260 c3         1 ALE       0.214600
     13 H2           0.7890    -1.6870     1.2760 ha         1 ALE       0.116000
     14 H6          -0.4470     1.7800    -1.0080 ha         1 ALE       0.111000
     15 H7          -1.4860    -1.2380     1.0950 h1         1 ALE       0.089700
     16 H1           2.9610    -2.1630     1.2320 ho         1 ALE       0.476000
     17 H5           1.9000     2.1550    -1.7050 ha         1 ALE       0.132000
     18 HA           4.4850    -0.0570    -0.5710 ho         1 ALE       0.483000
     19 H3          -1.4930     1.6100     1.2420 ho         1 ALE       0.435000
     20 H91C        -4.6600    -1.2090    -1.9730 h1         1 ALE       0.029367
     21 H92C        -5.8570    -0.7810    -0.7300 h1         1 ALE       0.029367
     22 H93C        -4.9410     0.4990    -1.5560 h1         1 ALE       0.029367
     23 HB          -4.0700     0.0590     0.6470 hn         1 ALE       0.416000
     24 H81C        -2.1160    -1.0060    -1.3000 h1         1 ALE       0.035200
     25 H82C        -2.4540     0.7130    -1.0540 h1         1 ALE       0.035200
     26 N1          -3.8310    -0.6010    -0.1070 n7         1 ALE      -0.855400
@<TRIPOS>BOND
     1     1     2 ar  
     2     1     6 ar  
     3     1    12 1   
     4     2     3 ar  
     5     2    13 1   
     6     3     4 ar  
     7     3     7 1   
     8     4     5 ar  
     9     4     8 1   
    10     5     6 ar  
    11     5    17 1   
    12     6    14 1   
    13     7    16 1   
    14     8    18 1   
    15     9    12 1   
    16     9    19 1   
    17    10    20 1   
    18    10    21 1   
    19    10    22 1   
    20    10    26 1   
    21    11    12 1   
    22    11    24 1   
    23    11    25 1   
    24    11    26 1   
    25    12    15 1   
    26    23    26 1   
@<TRIPOS>SUBSTRUCTURE
     1 ALE         1 TEMP              0 ****  ****    0 ROOT
