@<TRIPOS>MOLECULE
ALG
   20    19     1     0     0
SMALL
abcg2


@<TRIPOS>ATOM
      1 C           -3.1610    -0.0680    -0.0330 c          1 ALG       0.718000
      2 O           -3.1690    -1.3050    -0.1820 o          1 ALG      -0.741500
      3 CA          -1.7960     0.6370     0.0720 c3         1 ALG      -0.205400
      4 CB          -0.5790    -0.2610    -0.0670 c3         1 ALG      -0.068400
      5 CD           0.7220     0.5160     0.0650 c3         1 ALG       0.212800
      6 NE           1.8540    -0.3740    -0.0520 nu         1 ALG      -0.897400
      7 CZ           3.1310     0.1040    -0.1230 c2         1 ALG       0.793100
      8 NH1          3.3520     1.3580    -0.2880 n2         1 ALG      -0.904100
      9 NH2          4.1000    -0.8800    -0.0990 nv         1 ALG      -1.072200
     10 OXT         -4.1630     0.6740     0.0480 o          1 ALG      -0.741500
     11 HA1         -1.7610     1.4300    -0.6840 hc         1 ALG       0.019200
     12 HA2         -1.7600     1.1630     1.0340 hc         1 ALG       0.019200
     13 HB1         -0.6140    -1.0460     0.6940 hc         1 ALG       0.042200
     14 HB2         -0.5940    -0.7700    -1.0340 hc         1 ALG       0.042200
     15 HD1          0.7890     1.2700    -0.7210 h1         1 ALG       0.040200
     16 HD2          0.7370     1.0630     1.0180 h1         1 ALG       0.040200
     17 HNE          1.7340    -1.2780     0.3760 hn         1 ALG       0.464000
     18 HH1          4.3450     1.5340    -0.3880 hn         1 ALG       0.359400
     19 HH21         3.8600    -1.7470     0.3570 hn         1 ALG       0.440500
     20 HH22         5.0190    -0.5650     0.1670 hn         1 ALG       0.440500
@<TRIPOS>BOND
     1     1     2 1   
     2     1     3 1   
     3     1    10 1   
     4     3     4 1   
     5     3    11 1   
     6     3    12 1   
     7     4     5 1   
     8     4    13 1   
     9     4    14 1   
    10     5     6 1   
    11     5    15 1   
    12     5    16 1   
    13     6     7 1   
    14     6    17 1   
    15     7     8 2   
    16     7     9 1   
    17     8    18 1   
    18     9    19 1   
    19     9    20 1   
@<TRIPOS>SUBSTRUCTURE
     1 ALG         1 TEMP              0 ****  ****    0 ROOT
