@<TRIPOS>MOLECULE
ALG
   20    19     1     0     0
SMALL
No Charge or Current Charge


@<TRIPOS>ATOM
      1 C           -3.1080    -0.2000     0.0770 c          1 ALG       0.718000
      2 O           -3.5300    -0.7730     1.0700 o          1 ALG      -0.741500
      3 CA          -1.8450     0.6660     0.2210 c3         1 ALG      -0.205400
      4 CB          -0.5760    -0.1930    -0.0110 c3         1 ALG      -0.068400
      5 CD           0.7340     0.6130     0.1190 c3         1 ALG       0.212800
      6 NE           1.9010    -0.2520    -0.1060 nu         1 ALG      -0.897400
      7 CZ           3.1550     0.1640    -0.0530 c2         1 ALG       0.793100
      8 NH1          3.5210     1.3320     0.1820 n2         1 ALG      -0.904100
      9 NH2          3.8980    -0.8610    -0.3750 nv         1 ALG      -1.072200
     10 OXT         -3.6040    -0.3160    -1.0330 o          1 ALG      -0.741500
     11 HA1         -1.8240     1.4460    -0.5510 hc         1 ALG       0.019200
     12 HA2         -1.7610     1.0560     1.2430 hc         1 ALG       0.019200
     13 HB1         -0.5640    -1.0180     0.7130 hc         1 ALG       0.042200
     14 HB2         -0.6250    -0.6420    -1.0110 hc         1 ALG       0.042200
     15 HD1          0.7280     1.4330    -0.6130 h1         1 ALG       0.040200
     16 HD2          0.7860     1.0560     1.1240 h1         1 ALG       0.040200
     17 HNE          1.7830    -1.0020    -0.7730 hn         1 ALG       0.464000
     18 HH1          4.5420     1.3620     0.1040 hn         1 ALG       0.359400
     19 HH21         3.5500    -1.7080     0.0520 hn         1 ALG       0.440500
     20 HH22         4.8850    -0.7070    -0.2190 hn         1 ALG       0.440500
@<TRIPOS>BOND
     1     1     2 1   
     2     1     3 1   
     3     1    10 1   
     4     3     4 1   
     5     3    11 1   
     6     3    12 1   
     7     4     5 1   
     8     4    13 1   
     9     4    14 1   
    10     5     6 1   
    11     5    15 1   
    12     5    16 1   
    13     6     7 1   
    14     6    17 1   
    15     7     8 2   
    16     7     9 1   
    17     8    18 1   
    18     9    19 1   
    19     9    20 1   
@<TRIPOS>SUBSTRUCTURE
     1 ALG         1 TEMP              0 ****  ****    0 ROOT
