@<TRIPOS>MOLECULE
ALH
   37    39     1     0     0
SMALL
bcc


@<TRIPOS>ATOM
      1 OAO         -1.3890     0.1010    -5.5210 oh         1 ALH      -0.489100
      2 CAN         -1.2840     0.0650    -4.1810 ca         1 ALH       0.152100
      3 CAU         -2.3270    -0.3440    -3.3530 ca         1 ALH      -0.196000
      4 CAT         -2.1560    -0.3630    -1.9800 ca         1 ALH      -0.070500
      5 CAM         -0.9470     0.0200    -1.3940 ca         1 ALH      -0.089800
      6 CAE          0.0840     0.4380    -2.2390 ca         1 ALH      -0.070500
      7 CAF         -0.0740     0.4600    -3.6120 ca         1 ALH      -0.196000
      8 CAL         -0.7730    -0.0150     0.0550 cc         1 ALH       0.026700
      9 NAS         -1.8230     0.3250     0.8840 na         1 ALH      -0.271100
     10 CAR         -1.4310     0.2020     2.1740 ca         1 ALH       0.330500
     11 NAQ         -2.1280     0.4480     3.2620 nb         1 ALH      -0.648000
     12 CAJ         -0.0880    -0.2520     2.1660 ca         1 ALH       0.303800
     13 NAI          0.5590    -0.4830     3.3030 nb         1 ALH      -0.590000
     14 CAH         -0.1390    -0.2430     4.4050 ca         1 ALH       0.255900
     15 CAP         -1.4580     0.2200     4.3880 ca         1 ALH       0.301900
     16 CAK          0.3180    -0.3920     0.8070 cd         1 ALH      -0.223000
     17 CAG          1.6520    -0.8770     0.3500 c3         1 ALH      -0.003200
     18 CAD          2.7440     0.1920     0.4340 c3         1 ALH      -0.074400
     19 CAC          4.0910    -0.2990    -0.0790 c3         1 ALH      -0.075400
     20 CAB          5.1720     0.7700    -0.0070 c3         1 ALH      -0.088100
     21 HAO         -2.2620    -0.1940    -5.8010 ho         1 ALH       0.429000
     22 HAU         -3.2730    -0.6580    -3.7790 ha         1 ALH       0.143500
     23 HAT         -2.9780    -0.7060    -1.3630 ha         1 ALH       0.139000
     24 HAE          1.0220     0.7800    -1.8210 ha         1 ALH       0.139000
     25 HAF          0.7370     0.7940    -4.2460 ha         1 ALH       0.143500
     26 HAS         -2.7020     0.7120     0.5790 hn         1 ALH       0.313700
     27 HAH          0.3530    -0.4180     5.3550 h4         1 ALH       0.027100
     28 HAP         -1.9780     0.4050     5.3200 h4         1 ALH       0.027100
     29 HAG1         1.5820    -1.2520    -0.6750 hc         1 ALH       0.050700
     30 HAG2         1.9510    -1.7330     0.9640 hc         1 ALH       0.050700
     31 HAD1         2.8410     0.5240     1.4720 hc         1 ALH       0.042700
     32 HAD2         2.4350     1.0740    -0.1360 hc         1 ALH       0.042700
     33 HAC1         3.9820    -0.6380    -1.1130 hc         1 ALH       0.036700
     34 HAC2         4.4010    -1.1770     0.4960 hc         1 ALH       0.036700
     35 HAB1         6.1210     0.4080    -0.4030 hc         1 ALH       0.031367
     36 HAB2         4.8890     1.6530    -0.5850 hc         1 ALH       0.031367
     37 HAB3         5.3450     1.0920     1.0210 hc         1 ALH       0.031367
@<TRIPOS>BOND
     1     1     2 1   
     2     1    21 1   
     3     2     3 ar  
     4     2     7 ar  
     5     3     4 ar  
     6     3    22 1   
     7     4     5 ar  
     8     4    23 1   
     9     5     6 ar  
    10     5     8 1   
    11     6     7 ar  
    12     6    24 1   
    13     7    25 1   
    14     8     9 1   
    15     8    16 2   
    16     9    10 1   
    17     9    26 1   
    18    10    11 ar  
    19    10    12 ar  
    20    11    15 ar  
    21    12    13 ar  
    22    12    16 1   
    23    13    14 ar  
    24    14    15 ar  
    25    14    27 1   
    26    15    28 1   
    27    16    17 1   
    28    17    18 1   
    29    17    29 1   
    30    17    30 1   
    31    18    19 1   
    32    18    31 1   
    33    18    32 1   
    34    19    20 1   
    35    19    33 1   
    36    19    34 1   
    37    20    35 1   
    38    20    36 1   
    39    20    37 1   
@<TRIPOS>SUBSTRUCTURE
     1 ALH         1 TEMP              0 ****  ****    0 ROOT
