@<TRIPOS>MOLECULE
ALH
   37    39     1     0     0
SMALL
No Charge or Current Charge


@<TRIPOS>ATOM
      1 OAO         -1.3150    -0.0110    -5.5980 oh         1 ALH      -0.528100
      2 CAN         -1.2090     0.0230    -4.2410 ca         1 ALH       0.152100
      3 CAU         -2.2350    -0.4970    -3.4360 ca         1 ALH      -0.178000
      4 CAT         -2.1170    -0.4570    -2.0350 ca         1 ALH      -0.052500
      5 CAM         -0.9700     0.0930    -1.4280 ca         1 ALH      -0.089800
      6 CAE          0.0470     0.6270    -2.2470 ca         1 ALH      -0.052500
      7 CAF         -0.0720     0.5860    -3.6470 ca         1 ALH      -0.178000
      8 CAL         -0.8750     0.1390     0.0310 cc         1 ALH       0.026700
      9 NAS         -1.9070     0.4380     0.9370 na         1 ALH      -0.321400
     10 CAR         -1.4720     0.2790     2.2350 ca         1 ALH       0.330500
     11 NAQ         -2.1270     0.4730     3.4050 nb         1 ALH      -0.648000
     12 CAJ         -0.1490    -0.1600     2.1820 ca         1 ALH       0.303800
     13 NAI          0.6240    -0.4450     3.2580 nb         1 ALH      -0.590000
     14 CAH         -0.0220    -0.2530     4.4440 ca         1 ALH       0.255900
     15 CAP         -1.3770     0.2000     4.5170 ca         1 ALH       0.301900
     16 CAK          0.2240    -0.2640     0.7870 cd         1 ALH      -0.223000
     17 CAG          1.5460    -0.8130     0.2920 c3         1 ALH      -0.003200
     18 CAD          2.7070     0.1930     0.4540 c3         1 ALH      -0.074400
     19 CAC          4.0420    -0.3260    -0.1230 c3         1 ALH      -0.075400
     20 CAB          5.2010     0.6770     0.0430 c3         1 ALH      -0.088100
     21 HAO         -2.1680    -0.4340    -5.8330 ho         1 ALH       0.468000
     22 HAU         -3.1230    -0.9330    -3.8860 ha         1 ALH       0.125500
     23 HAT         -2.9160    -0.8660    -1.4190 ha         1 ALH       0.121000
     24 HAE          0.9240     1.0870    -1.8010 ha         1 ALH       0.121000
     25 HAF          0.7180     0.9990    -4.2700 ha         1 ALH       0.125500
     26 HAS         -2.8420     0.7310     0.6860 hn         1 ALH       0.364000
     27 HAH          0.5440    -0.4620     5.3500 h4         1 ALH       0.027100
     28 HAP         -1.8620     0.3420     5.4810 h4         1 ALH       0.027100
     29 HAG1         1.4710    -1.1210    -0.7570 hc         1 ALH       0.050700
     30 HAG2         1.7920    -1.7250     0.8490 hc         1 ALH       0.050700
     31 HAD1         2.8390     0.4200     1.5190 hc         1 ALH       0.042700
     32 HAD2         2.4440     1.1370    -0.0380 hc         1 ALH       0.042700
     33 HAC1         3.9150    -0.5500    -1.1890 hc         1 ALH       0.036700
     34 HAC2         4.3120    -1.2670     0.3730 hc         1 ALH       0.036700
     35 HAB1         6.1250     0.2660    -0.3800 hc         1 ALH       0.031367
     36 HAB2         4.9760     1.6180    -0.4740 hc         1 ALH       0.031367
     37 HAB3         5.3760     0.8960     1.1030 hc         1 ALH       0.031367
@<TRIPOS>BOND
     1     1     2 1   
     2     1    21 1   
     3     2     3 ar  
     4     2     7 ar  
     5     3     4 ar  
     6     3    22 1   
     7     4     5 ar  
     8     4    23 1   
     9     5     6 ar  
    10     5     8 1   
    11     6     7 ar  
    12     6    24 1   
    13     7    25 1   
    14     8     9 1   
    15     8    16 2   
    16     9    10 1   
    17     9    26 1   
    18    10    11 ar  
    19    10    12 ar  
    20    11    15 ar  
    21    12    13 ar  
    22    12    16 1   
    23    13    14 ar  
    24    14    15 ar  
    25    14    27 1   
    26    15    28 1   
    27    16    17 1   
    28    17    18 1   
    29    17    29 1   
    30    17    30 1   
    31    18    19 1   
    32    18    31 1   
    33    18    32 1   
    34    19    20 1   
    35    19    33 1   
    36    19    34 1   
    37    20    35 1   
    38    20    36 1   
    39    20    37 1   
@<TRIPOS>SUBSTRUCTURE
     1 ALH         1 TEMP              0 ****  ****    0 ROOT
