@<TRIPOS>MOLECULE
ALI
   26    27     1     0     0
SMALL
No Charge or Current Charge


@<TRIPOS>ATOM
      1 C1          -0.4820     0.7760    -0.0390 c5         1 ALI       0.118300
      2 C2           1.0240     0.5560    -0.3070 c5         1 ALI       0.093500
      3 C3           1.4150    -0.5820     0.6820 c5         1 ALI       0.133300
      4 C4           0.6010    -0.1300     1.9310 c5         1 ALI       0.144300
      5 C5          -0.8150     0.0020     1.2840 c5         1 ALI      -0.075700
      6 C6          -1.8930     0.7210     2.1340 c3         1 ALI       0.178600
      7 C7          -0.1480    -0.1210    -2.0750 ce         1 ALI       0.778600
      8 C8           0.2390    -0.5930    -4.2880 c2         1 ALI       0.504100
      9 N2           1.0790     0.0460    -1.6980 n2         1 ALI      -0.658900
     10 N7          -0.5610    -0.6950    -3.2660 ne         1 ALI      -0.636000
     11 O3           2.8260    -0.6480     0.9260 oh         1 ALI      -0.646000
     12 O4           0.6740    -1.0990     2.9790 oh         1 ALI      -0.631000
     13 O6          -2.3440    -0.1040     3.2150 oh         1 ALI      -0.642000
     14 O7          -1.1250     0.1060    -1.1350 os         1 ALI      -0.419600
     15 H1          -0.7510     1.8420    -0.0260 h1         1 ALI       0.086700
     16 H2           1.6130     1.4740    -0.1600 h1         1 ALI       0.103700
     17 H3           1.0490    -1.5560     0.3250 h1         1 ALI       0.055700
     18 HA           0.9580     0.8450     2.2950 h1         1 ALI       0.042700
     19 H5          -1.2170    -0.9910     1.0510 hc         1 ALI       0.091700
     20 H6C1        -2.7420     0.9680     1.4830 h1         1 ALI       0.020200
     21 H6C2        -1.4810     1.6650     2.5160 h1         1 ALI       0.020200
     22 H8C1        -0.0470    -1.0370    -5.2370 h4         1 ALI       0.000800
     23 H8C2         1.1790    -0.0510    -4.2420 h4         1 ALI       0.000800
     24 HB           3.2510    -0.7700     0.0470 ho         1 ALI       0.449000
     25 H4           1.6250    -1.3360     3.0570 ho         1 ALI       0.443000
     26 H6          -3.0040     0.4210     3.7190 ho         1 ALI       0.442000
@<TRIPOS>BOND
     1     1     2 1   
     2     1     5 1   
     3     1    14 1   
     4     1    15 1   
     5     2     3 1   
     6     2     9 1   
     7     2    16 1   
     8     3     4 1   
     9     3    11 1   
    10     3    17 1   
    11     4     5 1   
    12     4    12 1   
    13     4    18 1   
    14     5     6 1   
    15     5    19 1   
    16     6    13 1   
    17     6    20 1   
    18     6    21 1   
    19     7     9 2   
    20     7    10 1   
    21     7    14 1   
    22     8    10 2   
    23     8    22 1   
    24     8    23 1   
    25    11    24 1   
    26    12    25 1   
    27    13    26 1   
@<TRIPOS>SUBSTRUCTURE
     1 ALI         1 TEMP              0 ****  ****    0 ROOT
