@<TRIPOS>MOLECULE
ALI
   26    27     1     0     0
SMALL
bcc


@<TRIPOS>ATOM
      1 C1          -0.3970     0.9940     0.0230 c5         1 ALI       0.095100
      2 C2           1.0890     0.8030    -0.3610 c5         1 ALI       0.093500
      3 C3           1.6050    -0.3000     0.5640 c5         1 ALI       0.110100
      4 C4           0.6520    -0.2350     1.7640 c5         1 ALI       0.121100
      5 C5          -0.7150    -0.0350     1.1100 c5         1 ALI      -0.075700
      6 C6          -1.8360     0.4430     2.0120 c3         1 ALI       0.155400
      7 C7          -0.1610     0.4160    -2.1040 ce         1 ALI       0.778600
      8 C8          -0.1850    -0.8180    -4.0080 c2         1 ALI       0.504100
      9 N2           1.0600     0.4280    -1.7640 n2         1 ALI      -0.658900
     10 N7          -0.6750     0.1510    -3.3590 ne         1 ALI      -0.636000
     11 O3           2.9600    -0.1060     0.8750 oh         1 ALI      -0.583800
     12 O4           0.6790    -1.3810     2.5700 oh         1 ALI      -0.568800
     13 O6          -2.1690    -0.5520     2.9490 oh         1 ALI      -0.579800
     14 O7          -1.0950     0.7570    -1.2050 os         1 ALI      -0.396400
     15 H1          -0.6300     2.0090     0.3530 h1         1 ALI       0.086700
     16 H2           1.6810     1.7120    -0.2190 h1         1 ALI       0.103700
     17 H3           1.4490    -1.2700     0.0690 h1         1 ALI       0.055700
     18 HA           0.8970     0.6670     2.3490 h1         1 ALI       0.042700
     19 H5          -1.0120    -0.9760     0.6300 hc         1 ALI       0.091700
     20 H6C1        -2.6990     0.7010     1.3830 h1         1 ALI       0.020200
     21 H6C2        -1.5160     1.3740     2.5030 h1         1 ALI       0.020200
     22 H8C1        -0.5460    -1.0090    -5.0120 h4         1 ALI       0.000800
     23 H8C2         0.5810    -1.4850    -3.6120 h4         1 ALI       0.000800
     24 HB           3.3370    -0.9420     1.1650 ho         1 ALI       0.410000
     25 H4           1.5070    -1.3910     3.0590 ho         1 ALI       0.404000
     26 H6          -2.9380    -0.2460     3.4380 ho         1 ALI       0.403000
@<TRIPOS>BOND
     1     1     2 1   
     2     1     5 1   
     3     1    14 1   
     4     1    15 1   
     5     2     3 1   
     6     2     9 1   
     7     2    16 1   
     8     3     4 1   
     9     3    11 1   
    10     3    17 1   
    11     4     5 1   
    12     4    12 1   
    13     4    18 1   
    14     5     6 1   
    15     5    19 1   
    16     6    13 1   
    17     6    20 1   
    18     6    21 1   
    19     7     9 2   
    20     7    10 1   
    21     7    14 1   
    22     8    10 2   
    23     8    22 1   
    24     8    23 1   
    25    11    24 1   
    26    12    25 1   
    27    13    26 1   
@<TRIPOS>SUBSTRUCTURE
     1 ALI         1 TEMP              0 ****  ****    0 ROOT
