@<TRIPOS>MOLECULE
ALJ
   37    38     1     0     0
SMALL
No Charge or Current Charge


@<TRIPOS>ATOM
      1 O           -2.5310    -0.0910     1.7720 o          1 ALJ      -0.552000
      2 C           -1.3400     0.1900     1.8380 c          1 ALJ       0.560000
      3 NP          -0.6320     0.0830     3.0430 n          1 ALJ      -0.410800
      4 CDP         -1.1970    -0.4770     4.2860 c5         1 ALJ       0.104000
      5 CGP         -0.0270    -0.2600     5.2860 c5         1 ALJ      -0.099400
      6 CBP          1.2220    -0.3880     4.3700 c5         1 ALJ      -0.073400
      7 CAP          0.7910     0.4900     3.1620 c5         1 ALJ       0.023700
      8 CP           1.6910     0.2490     1.9000 c          1 ALJ       0.562000
      9 OP           2.8960     0.0460     1.8860 o          1 ALJ      -0.551000
     10 N            0.9400     0.1740     0.7420 ns         1 ALJ      -0.504900
     11 CA          -0.4820     0.5890     0.5980 c6         1 ALJ       0.042700
     12 CB          -1.1040     0.0740    -0.7360 c3         1 ALJ      -0.084400
     13 CG          -0.3660     0.5350    -2.0160 c3         1 ALJ      -0.097400
     14 CD          -1.0570     0.0600    -3.3120 c3         1 ALJ       0.137800
     15 NE          -0.3170     0.5500    -4.4890 n2         1 ALJ      -0.736900
     16 CZ           0.2500    -0.1870    -5.3320 c2         1 ALJ       0.791100
     17 NH1          0.8900     0.2390    -6.3800 nv         1 ALJ      -1.043700
     18 NH2          0.3580    -1.4880    -5.3670 nv         1 ALJ      -1.043700
     19 HDP1        -1.4250    -1.5440     4.1580 h1         1 ALJ       0.059200
     20 HDP2        -2.1120     0.0420     4.6010 h1         1 ALJ       0.059200
     21 HGP1        -0.0340    -0.9910     6.1020 hc         1 ALJ       0.056700
     22 HGP2        -0.0800     0.7370     5.7410 hc         1 ALJ       0.056700
     23 HBP1         1.3940    -1.4300     4.0720 hc         1 ALJ       0.069200
     24 HBP2         2.1400    -0.0250     4.8470 hc         1 ALJ       0.069200
     25 HAP          0.8500     1.5590     3.4040 h1         1 ALJ       0.071700
     26 H            1.4600    -0.0490    -0.0980 hn         1 ALJ       0.324500
     27 HA          -0.4970     1.6880     0.5800 h1         1 ALJ       0.065700
     28 HBC1        -2.1450     0.4140    -0.8050 hc         1 ALJ       0.068700
     29 HBC2        -1.1400    -1.0230    -0.7220 hc         1 ALJ       0.068700
     30 HGC1         0.6640     0.1570    -2.0040 hc         1 ALJ       0.041200
     31 HGC2        -0.3070     1.6310    -2.0200 hc         1 ALJ       0.041200
     32 HDC1        -2.0850     0.4480    -3.3280 h1         1 ALJ       0.040200
     33 HDC2        -1.1300    -1.0360    -3.2910 h1         1 ALJ       0.040200
     34 HH11         0.6160    -0.2910    -7.1940 hn         1 ALJ       0.460750
     35 HH12         0.7550     1.2350    -6.4900 hn         1 ALJ       0.460750
     36 HH21         1.2580    -1.7460    -5.7430 hn         1 ALJ       0.460750
     37 HH22         0.1580    -1.9070    -4.4710 hn         1 ALJ       0.460750
@<TRIPOS>BOND
     1     1     2 2   
     2     2     3 1   
     3     2    11 1   
     4     3     4 1   
     5     3     7 1   
     6     4     5 1   
     7     4    19 1   
     8     4    20 1   
     9     5     6 1   
    10     5    21 1   
    11     5    22 1   
    12     6     7 1   
    13     6    23 1   
    14     6    24 1   
    15     7     8 1   
    16     7    25 1   
    17     8     9 2   
    18     8    10 1   
    19    10    11 1   
    20    10    26 1   
    21    11    12 1   
    22    11    27 1   
    23    12    13 1   
    24    12    28 1   
    25    12    29 1   
    26    13    14 1   
    27    13    30 1   
    28    13    31 1   
    29    14    15 1   
    30    14    32 1   
    31    14    33 1   
    32    15    16 2   
    33    16    17 1   
    34    16    18 1   
    35    17    34 1   
    36    17    35 1   
    37    18    36 1   
    38    18    37 1   
@<TRIPOS>SUBSTRUCTURE
     1 ALJ         1 TEMP              0 ****  ****    0 ROOT
