@<TRIPOS>MOLECULE
ALJ
   37    38     1     0     0
SMALL
abcg2


@<TRIPOS>ATOM
      1 O           -2.4870    -0.1310     1.7150 o          1 ALJ      -0.552000
      2 C           -1.2820     0.0650     1.7550 c          1 ALJ       0.560000
      3 NP          -0.5750     0.0460     2.8860 n          1 ALJ      -0.410800
      4 CDP         -1.1520    -0.2590     4.1900 c5         1 ALJ       0.104000
      5 CGP          0.0170    -0.0470     5.1500 c5         1 ALJ      -0.099400
      6 CBP          1.2520    -0.3090     4.2920 c5         1 ALJ      -0.073400
      7 CAP          0.8570     0.3050     2.9550 c5         1 ALJ       0.023700
      8 CP           1.5850    -0.2530     1.7530 c          1 ALJ       0.562000
      9 OP           2.7320    -0.6630     1.8220 o          1 ALJ      -0.551000
     10 N            0.8580    -0.2350     0.6280 ns         1 ALJ      -0.504900
     11 CA          -0.4530     0.3830     0.5120 c6         1 ALJ       0.042700
     12 CB          -1.1420    -0.0690    -0.7670 c3         1 ALJ      -0.084400
     13 CG          -0.4790     0.4570    -2.0350 c3         1 ALJ      -0.097400
     14 CD          -1.2680     0.0690    -3.2870 c3         1 ALJ       0.137800
     15 NE          -0.7160     0.6290    -4.4940 n2         1 ALJ      -0.736900
     16 CZ           0.2210     0.0040    -5.1040 c2         1 ALJ       0.791100
     17 NH1          0.8230     0.5900    -6.1980 nv         1 ALJ      -1.043700
     18 NH2          0.7210    -1.2390    -4.8030 nv         1 ALJ      -1.043700
     19 HDP1        -1.5100    -1.2920     4.2080 h1         1 ALJ       0.059200
     20 HDP2        -1.9980     0.3930     4.4080 h1         1 ALJ       0.059200
     21 HGP1        -0.0420    -0.7050     6.0150 hc         1 ALJ       0.056700
     22 HGP2         0.0240     0.9820     5.5140 hc         1 ALJ       0.056700
     23 HBP1         1.4200    -1.3820     4.1780 hc         1 ALJ       0.069200
     24 HBP2         2.1590     0.1350     4.6970 hc         1 ALJ       0.069200
     25 HAP          1.0450     1.3890     2.9760 h1         1 ALJ       0.071700
     26 H            1.3150    -0.5360    -0.2210 hn         1 ALJ       0.324500
     27 HA          -0.3470     1.4780     0.4760 h1         1 ALJ       0.065700
     28 HBC1        -2.1720     0.2880    -0.7370 hc         1 ALJ       0.068700
     29 HBC2        -1.1910    -1.1620    -0.7840 hc         1 ALJ       0.068700
     30 HGC1         0.5470     0.0890    -2.1340 hc         1 ALJ       0.041200
     31 HGC2        -0.4080     1.5480    -1.9860 hc         1 ALJ       0.041200
     32 HDC1        -2.2870     0.4500    -3.1720 h1         1 ALJ       0.040200
     33 HDC2        -1.3760    -1.0260    -3.3150 h1         1 ALJ       0.040200
     34 HH11         1.1410    -0.0440    -6.9160 hn         1 ALJ       0.460750
     35 HH12         0.2870     1.3520    -6.5820 hn         1 ALJ       0.460750
     36 HH21         1.6510    -1.4450    -5.1280 hn         1 ALJ       0.460750
     37 HH22         0.5540    -1.5960    -3.8780 hn         1 ALJ       0.460750
@<TRIPOS>BOND
     1     1     2 2   
     2     2     3 1   
     3     2    11 1   
     4     3     4 1   
     5     3     7 1   
     6     4     5 1   
     7     4    19 1   
     8     4    20 1   
     9     5     6 1   
    10     5    21 1   
    11     5    22 1   
    12     6     7 1   
    13     6    23 1   
    14     6    24 1   
    15     7     8 1   
    16     7    25 1   
    17     8     9 2   
    18     8    10 1   
    19    10    11 1   
    20    10    26 1   
    21    11    12 1   
    22    11    27 1   
    23    12    13 1   
    24    12    28 1   
    25    12    29 1   
    26    13    14 1   
    27    13    30 1   
    28    13    31 1   
    29    14    15 1   
    30    14    32 1   
    31    14    33 1   
    32    15    16 2   
    33    16    17 1   
    34    16    18 1   
    35    17    34 1   
    36    17    35 1   
    37    18    36 1   
    38    18    37 1   
@<TRIPOS>SUBSTRUCTURE
     1 ALJ         1 TEMP              0 ****  ****    0 ROOT
