@<TRIPOS>MOLECULE
ALK
   16    15     1     0     0
SMALL
No Charge or Current Charge


@<TRIPOS>ATOM
      1 O3           1.2830    -0.7120     0.4720 os         1 ALK      -0.612400
      2 C5           2.6900    -0.6350     0.2350 c3         1 ALK       0.214900
      3 C3          -1.7120    -1.6630    -0.0420 c3         1 ALK      -0.092100
      4 C2          -1.3660    -0.2300     0.4310 c3         1 ALK      -0.161700
      5 O5          -2.5300     0.6160     0.1900 oh         1 ALK      -0.632000
      6 O1           0.6200     1.7590     0.2540 o          1 ALK      -0.821000
      7 O2           0.3790     0.2660    -1.7280 o          1 ALK      -0.821000
      8 P1           0.3190     0.3750    -0.2350 p5         1 ALK       1.415400
      9 H1           2.9130    -0.7520    -0.8330 h1         1 ALK       0.004700
     10 H2           3.0920     0.3290     0.5740 h1         1 ALK       0.004700
     11 H3           3.2090    -1.4320     0.7810 h1         1 ALK       0.004700
     12 H4          -2.6310    -2.0210     0.4370 hc         1 ALK       0.023700
     13 H5          -1.8570    -1.6920    -1.1290 hc         1 ALK       0.023700
     14 H6          -0.9070    -2.3620     0.2140 hc         1 ALK       0.023700
     15 H7          -1.1920    -0.2820     1.5130 h1         1 ALK       0.025700
     16 H8          -3.3060     0.1920     0.6190 ho         1 ALK       0.398000
@<TRIPOS>BOND
     1     1     2 1   
     2     1     8 1   
     3     2     9 1   
     4     2    10 1   
     5     2    11 1   
     6     3     4 1   
     7     3    12 1   
     8     3    13 1   
     9     3    14 1   
    10     4     5 1   
    11     4     8 1   
    12     4    15 1   
    13     5    16 1   
    14     6     8 1   
    15     7     8 1   
@<TRIPOS>SUBSTRUCTURE
     1 ALK         1 TEMP              0 ****  ****    0 ROOT
