@<TRIPOS>MOLECULE
ALK
   16    15     1     0     0
SMALL
bcc


@<TRIPOS>ATOM
      1 O3           1.2490    -0.6910     0.5280 os         1 ALK      -0.589200
      2 C5           2.6180    -0.6410     0.1830 c3         1 ALK       0.191700
      3 C3          -1.6340    -1.6810    -0.0180 c3         1 ALK      -0.092100
      4 C2          -1.3340    -0.2810     0.4900 c3         1 ALK      -0.027100
      5 O5          -2.3380     0.6440     0.1000 oh         1 ALK      -0.569800
      6 O1           0.4960     1.7700     0.4210 o          1 ALK      -0.821000
      7 O2           0.2890     0.2490    -1.6750 o          1 ALK      -0.821000
      8 P1           0.2370     0.4140    -0.1790 p5         1 ALK       1.257600
      9 H1           2.7810    -0.8250    -0.8820 h1         1 ALK       0.004700
     10 H2           3.0720     0.3230     0.4350 h1         1 ALK       0.004700
     11 H3           3.1380    -1.4160     0.7460 h1         1 ALK       0.004700
     12 H4          -2.5880    -2.0400     0.3790 hc         1 ALK       0.023700
     13 H5          -1.6900    -1.6990    -1.1070 hc         1 ALK       0.023700
     14 H6          -0.8660    -2.3880     0.2930 hc         1 ALK       0.023700
     15 H7          -1.2490    -0.3140     1.5860 h1         1 ALK       0.025700
     16 H8          -3.1780     0.3330     0.4530 ho         1 ALK       0.359000
@<TRIPOS>BOND
     1     1     2 1   
     2     1     8 1   
     3     2     9 1   
     4     2    10 1   
     5     2    11 1   
     6     3     4 1   
     7     3    12 1   
     8     3    13 1   
     9     3    14 1   
    10     4     5 1   
    11     4     8 1   
    12     4    15 1   
    13     5    16 1   
    14     6     8 1   
    15     7     8 1   
@<TRIPOS>SUBSTRUCTURE
     1 ALK         1 TEMP              0 ****  ****    0 ROOT
