@<TRIPOS>MOLECULE
ALL
   24    24     1     0     0
SMALL
No Charge or Current Charge


@<TRIPOS>ATOM
      1 C1           4.9670     7.1180    10.4860 c6         1 ALL       0.403300
      2 C2           5.2720     8.5850    10.9630 c6         1 ALL       0.154300
      3 C3           4.7550     8.7880    12.4180 c6         1 ALL       0.135300
      4 C4           3.2850     8.2970    12.5860 c6         1 ALL       0.106300
      5 C5           3.1000     6.8630    11.9820 c6         1 ALL       0.159300
      6 C6           1.6090     6.3830    11.9930 c3         1 ALL       0.162600
      7 O1           5.2230     6.9370     9.1070 oh         1 ALL      -0.686000
      8 O2           6.6810     8.9060    10.9280 oh         1 ALL      -0.687000
      9 O3           5.5930     8.0940    13.3590 oh         1 ALL      -0.710000
     10 O4           2.9430     8.3330    13.9930 oh         1 ALL      -0.731000
     11 O5           3.5720     6.8350    10.6110 os         1 ALL      -0.484000
     12 O6           0.7300     7.1970    11.1880 oh         1 ALL      -0.713000
     13 H1           5.5500     6.3950    11.0780 h2         1 ALL       0.044700
     14 H2           4.7180     9.2710    10.3050 h1         1 ALL       0.056700
     15 H3           4.7750     9.8660    12.6390 h1         1 ALL       0.040700
     16 H4           2.6400     8.9890    12.0220 h1         1 ALL       0.068700
     17 H5           3.6880     6.1420    12.5700 h1         1 ALL       0.056700
     18 H61          1.5920     5.3470    11.6300 h1         1 ALL       0.030200
     19 H62          1.2570     6.3600    13.0330 h1         1 ALL       0.030200
     20 HO1          4.3500     6.6340     8.7750 ho         1 ALL       0.517000
     21 HO2          6.9980     8.6540    11.8300 ho         1 ALL       0.505000
     22 HO3          4.9960     7.9770    14.1410 ho         1 ALL       0.519000
     23 HO4          1.9700     8.4910    14.0530 ho         1 ALL       0.517000
     24 HO6         -0.1380     6.7320    11.1510 ho         1 ALL       0.504000
@<TRIPOS>BOND
     1     1     2 1   
     2     1     7 1   
     3     1    11 1   
     4     1    13 1   
     5     2     3 1   
     6     2     8 1   
     7     2    14 1   
     8     3     4 1   
     9     3     9 1   
    10     3    15 1   
    11     4     5 1   
    12     4    10 1   
    13     4    16 1   
    14     5     6 1   
    15     5    11 1   
    16     5    17 1   
    17     6    12 1   
    18     6    18 1   
    19     6    19 1   
    20     7    20 1   
    21     8    21 1   
    22     9    22 1   
    23    10    23 1   
    24    12    24 1   
@<TRIPOS>SUBSTRUCTURE
     1 ALL         1 TEMP              0 ****  ****    0 ROOT
