@<TRIPOS>MOLECULE
ALL
   24    24     1     0     0
SMALL
bcc


@<TRIPOS>ATOM
      1 C1           4.8670     7.1270    10.4890 c6         1 ALL       0.356900
      2 C2           5.2210     8.4970    11.0620 c6         1 ALL       0.131100
      3 C3           4.7420     8.6090    12.5090 c6         1 ALL       0.112100
      4 C4           3.2560     8.2600    12.5830 c6         1 ALL       0.083100
      5 C5           3.0210     6.8820    11.9510 c6         1 ALL       0.136100
      6 C6           1.5730     6.4430    11.9530 c3         1 ALL       0.139400
      7 O1           5.1850     7.1120     9.1470 oh         1 ALL      -0.563800
      8 O2           6.6070     8.6760    10.9370 oh         1 ALL      -0.564800
      9 O3           5.5220     7.7510    13.3070 oh         1 ALL      -0.587800
     10 O4           2.8850     8.2910    13.9420 oh         1 ALL      -0.608800
     11 O5           3.4790     6.9150    10.6140 os         1 ALL      -0.437600
     12 O6           0.7760     7.4160    11.3210 oh         1 ALL      -0.590800
     13 H1           5.4060     6.3380    11.0400 h2         1 ALL       0.044700
     14 H2           4.6630     9.2470    10.4790 h1         1 ALL       0.056700
     15 H3           4.8650     9.6540    12.8340 h1         1 ALL       0.040700
     16 H4           2.7070     9.0120    12.0030 h1         1 ALL       0.068700
     17 H5           3.5770     6.1280    12.5290 h1         1 ALL       0.056700
     18 H61          1.5050     5.4690    11.4510 h1         1 ALL       0.030200
     19 H62          1.2720     6.2760    12.9950 h1         1 ALL       0.030200
     20 HO1          5.1970     6.2010     8.8340 ho         1 ALL       0.418000
     21 HO2          6.8290     9.5610    11.2450 ho         1 ALL       0.406000
     22 HO3          5.1850     7.7930    14.2080 ho         1 ALL       0.420000
     23 HO4          1.9310     8.3880    14.0100 ho         1 ALL       0.418000
     24 HO6         -0.1440     7.1490    11.3980 ho         1 ALL       0.405000
@<TRIPOS>BOND
     1     1     2 1   
     2     1     7 1   
     3     1    11 1   
     4     1    13 1   
     5     2     3 1   
     6     2     8 1   
     7     2    14 1   
     8     3     4 1   
     9     3     9 1   
    10     3    15 1   
    11     4     5 1   
    12     4    10 1   
    13     4    16 1   
    14     5     6 1   
    15     5    11 1   
    16     5    17 1   
    17     6    12 1   
    18     6    18 1   
    19     6    19 1   
    20     7    20 1   
    21     8    21 1   
    22     9    22 1   
    23    10    23 1   
    24    12    24 1   
@<TRIPOS>SUBSTRUCTURE
     1 ALL         1 TEMP              0 ****  ****    0 ROOT
