@<TRIPOS>MOLECULE
ALM
   15    14     1     0     0
SMALL
No Charge or Current Charge


@<TRIPOS>ATOM
      1 N           -0.9090     0.5150     1.6310 n8         1 ALM      -0.867800
      2 CA           0.1960     0.3620     0.6310 c3         1 ALM       0.055500
      3 C           -0.2450    -0.0530    -0.8190 c          1 ALM       0.577100
      4 O           -1.3190    -0.6010    -1.0520 o          1 ALM      -0.510100
      5 CB           1.2640    -0.5970     1.1990 c3         1 ALM      -0.130100
      6 CM           0.6950     0.3460    -1.9590 c3         1 ALM      -0.200100
      7 H           -0.5100     0.6720     2.5630 hn         1 ALM       0.346300
      8 H2          -1.4150    -0.3740     1.7160 hn         1 ALM       0.346300
      9 HA           0.6710     1.3480     0.5290 h1         1 ALM       0.071700
     10 HB1          1.5980    -0.2690     2.1920 hc         1 ALM       0.042367
     11 HB2          0.8680    -1.6160     1.2870 hc         1 ALM       0.042367
     12 HB3          2.1450    -0.6290     0.5470 hc         1 ALM       0.042367
     13 HM1          0.2880     0.1020    -2.9480 hc         1 ALM       0.061033
     14 HM2          0.9330     1.4120    -1.8700 hc         1 ALM       0.061033
     15 HM3          1.6710    -0.1230    -1.7990 hc         1 ALM       0.061033
@<TRIPOS>BOND
     1     1     2 1   
     2     1     7 1   
     3     1     8 1   
     4     2     3 1   
     5     2     5 1   
     6     2     9 1   
     7     3     4 2   
     8     3     6 1   
     9     5    10 1   
    10     5    11 1   
    11     5    12 1   
    12     6    13 1   
    13     6    14 1   
    14     6    15 1   
@<TRIPOS>SUBSTRUCTURE
     1 ALM         1 TEMP              0 ****  ****    0 ROOT
