@<TRIPOS>MOLECULE
ALM
   15    14     1     0     0
SMALL
bcc


@<TRIPOS>ATOM
      1 N           -0.8930     0.5450     1.5500 n8         1 ALM      -0.867800
      2 CA           0.2410     0.3780     0.6640 c3         1 ALM       0.055500
      3 C           -0.2280     0.0190    -0.7340 c          1 ALM       0.577100
      4 O           -1.2900    -0.5300    -0.9210 o          1 ALM      -0.510100
      5 CB           1.2500    -0.6900     1.1170 c3         1 ALM      -0.130100
      6 CM           0.7020     0.3760    -1.8590 c3         1 ALM      -0.200100
      7 H           -0.5550     0.7970     2.4700 hn         1 ALM       0.346300
      8 H2          -1.3690    -0.3420     1.6630 hn         1 ALM       0.346300
      9 HA           0.7710     1.3340     0.6000 h1         1 ALM       0.071700
     10 HB1          1.6530    -0.4220     2.0940 hc         1 ALM       0.042367
     11 HB2          0.7620    -1.6630     1.2070 hc         1 ALM       0.042367
     12 HB3          2.0920    -0.7950     0.4320 hc         1 ALM       0.042367
     13 HM1          0.5140    -0.2310    -2.7430 hc         1 ALM       0.061033
     14 HM2          0.5310     1.4240    -2.1210 hc         1 ALM       0.061033
     15 HM3          1.7490     0.2930    -1.5700 hc         1 ALM       0.061033
@<TRIPOS>BOND
     1     1     2 1   
     2     1     7 1   
     3     1     8 1   
     4     2     3 1   
     5     2     5 1   
     6     2     9 1   
     7     3     4 2   
     8     3     6 1   
     9     5    10 1   
    10     5    11 1   
    11     5    12 1   
    12     6    13 1   
    13     6    14 1   
    14     6    15 1   
@<TRIPOS>SUBSTRUCTURE
     1 ALM         1 TEMP              0 ****  ****    0 ROOT
