@<TRIPOS>MOLECULE
ALN
   28    29     1     0     0
SMALL
bcc


@<TRIPOS>ATOM
      1 N            5.0060    19.9080    15.3440 n8         1 ALN      -0.876800
      2 CA           3.8600    20.1720    16.1910 c3         1 ALN       0.025500
      3 C            2.5370    20.0820    15.3950 c          1 ALN       0.935600
      4 O            2.6000    20.2710    14.1650 o          1 ALN      -0.833300
      5 CB           3.8910    21.5560    16.8900 c3         1 ALN      -0.078100
      6 CG1          5.0840    21.7320    17.7790 ca         1 ALN      -0.024300
      7 CD1          6.1900    22.4080    17.3230 ca         1 ALN      -0.163000
      8 CE1          7.3540    22.5470    18.1040 ca         1 ALN      -0.116000
      9 CD2          5.1260    21.1540    19.0850 ca         1 ALN      -0.034000
     10 CE2          6.3000    21.2950    19.8740 ca         1 ALN      -0.033000
     11 CZ1          7.4110    22.0000    19.3540 ca         1 ALN      -0.151000
     12 CG2          4.0320    20.4410    19.6360 ca         1 ALN      -0.088000
     13 CD3          4.0990    19.9020    20.8930 ca         1 ALN      -0.152000
     14 CE3          5.2640    20.0460    21.6710 ca         1 ALN      -0.129000
     15 CZ2          6.3380    20.7270    21.1690 ca         1 ALN      -0.138000
     16 OXT          1.5110    19.8720    16.0730 o          1 ALN      -0.833300
     17 H            5.8640    20.1570    15.8210 hn         1 ALN       0.324300
     18 H2           4.9460    20.4970    14.5220 hn         1 ALN       0.324300
     19 HA           3.8330    19.4060    16.9730 h1         1 ALN       0.047700
     20 HB2          3.9030    22.3290    16.1170 hc         1 ALN       0.056700
     21 HB3          2.9650    21.6940    17.4530 hc         1 ALN       0.056700
     22 HD1          6.1640    22.8550    16.3360 ha         1 ALN       0.128000
     23 HE1          8.2020    23.0880    17.7050 ha         1 ALN       0.116000
     24 HZ1          8.3020    22.0990    19.9630 ha         1 ALN       0.115000
     25 HG2          3.1260    20.3140    19.0570 ha         1 ALN       0.165000
     26 HD3          3.2510    19.3610    21.2930 ha         1 ALN       0.125000
     27 HE3          5.3060    19.6150    22.6630 ha         1 ALN       0.115000
     28 HZ2          7.2390    20.8420    21.7620 ha         1 ALN       0.115000
@<TRIPOS>BOND
     1     1     2 1   
     2     1    17 1   
     3     1    18 1   
     4     2     3 1   
     5     2     5 1   
     6     2    19 1   
     7     3     4 1   
     8     3    16 1   
     9     5     6 1   
    10     5    20 1   
    11     5    21 1   
    12     6     7 ar  
    13     6     9 ar  
    14     7     8 ar  
    15     7    22 1   
    16     8    11 ar  
    17     8    23 1   
    18     9    10 ar  
    19     9    12 ar  
    20    10    11 ar  
    21    10    15 ar  
    22    11    24 1   
    23    12    13 ar  
    24    12    25 1   
    25    13    14 ar  
    26    13    26 1   
    27    14    15 ar  
    28    14    27 1   
    29    15    28 1   
@<TRIPOS>SUBSTRUCTURE
     1 ALN         1 TEMP              0 ****  ****    0 ROOT
