@<TRIPOS>MOLECULE
ALN
   28    29     1     0     0
SMALL
No Charge or Current Charge


@<TRIPOS>ATOM
      1 N            5.0430    19.8790    15.3780 n8         1 ALN      -0.876800
      2 CA           3.7830    20.1840    16.1540 c3         1 ALN       0.025500
      3 C            2.3990    20.0600    15.3770 c          1 ALN       0.935600
      4 O            2.2330    20.7140    14.3500 o          1 ALN      -0.833300
      5 CB           3.9080    21.5730    16.8380 c3         1 ALN      -0.078100
      6 CG1          5.1200    21.6990    17.7700 ca         1 ALN      -0.024300
      7 CD1          6.2490    22.4010    17.2980 ca         1 ALN      -0.163000
      8 CE1          7.3920    22.5530    18.0970 ca         1 ALN      -0.116000
      9 CD2          5.1470    21.1440    19.0810 ca         1 ALN      -0.034000
     10 CE2          6.3080    21.3030    19.8810 ca         1 ALN      -0.033000
     11 CZ1          7.4220    22.0040    19.3850 ca         1 ALN      -0.151000
     12 CG2          4.0460    20.4340    19.6210 ca         1 ALN      -0.088000
     13 CD3          4.1060    19.8980    20.9190 ca         1 ALN      -0.152000
     14 CE3          5.2610    20.0610    21.6990 ca         1 ALN      -0.129000
     15 CZ2          6.3590    20.7620    21.1800 ca         1 ALN      -0.138000
     16 OXT          1.5640    19.2590    15.7860 o          1 ALN      -0.833300
     17 H            5.8510    20.1430    15.9500 hn         1 ALN       0.324300
     18 H2           5.0900    20.5020    14.5650 hn         1 ALN       0.324300
     19 HA           3.7370    19.4360    16.9560 h1         1 ALN       0.047700
     20 HB2          3.9510    22.3440    16.0580 hc         1 ALN       0.056700
     21 HB3          2.9850    21.7900    17.3900 hc         1 ALN       0.056700
     22 HD1          6.2420    22.8330    16.2990 ha         1 ALN       0.128000
     23 HE1          8.2550    23.0960    17.7160 ha         1 ALN       0.116000
     24 HZ1          8.3110    22.1250    20.0000 ha         1 ALN       0.115000
     25 HG2          3.1340    20.2870    19.0490 ha         1 ALN       0.165000
     26 HD3          3.2530    19.3540    21.3210 ha         1 ALN       0.125000
     27 HE3          5.3040    19.6450    22.7030 ha         1 ALN       0.115000
     28 HZ2          7.2510    20.8860    21.7900 ha         1 ALN       0.115000
@<TRIPOS>BOND
     1     1     2 1   
     2     1    17 1   
     3     1    18 1   
     4     2     3 1   
     5     2     5 1   
     6     2    19 1   
     7     3     4 1   
     8     3    16 1   
     9     5     6 1   
    10     5    20 1   
    11     5    21 1   
    12     6     7 ar  
    13     6     9 ar  
    14     7     8 ar  
    15     7    22 1   
    16     8    11 ar  
    17     8    23 1   
    18     9    10 ar  
    19     9    12 ar  
    20    10    11 ar  
    21    10    15 ar  
    22    11    24 1   
    23    12    13 ar  
    24    12    25 1   
    25    13    14 ar  
    26    13    26 1   
    27    14    15 ar  
    28    14    27 1   
    29    15    28 1   
@<TRIPOS>SUBSTRUCTURE
     1 ALN         1 TEMP              0 ****  ****    0 ROOT
