@<TRIPOS>MOLECULE
ALO
   16    15     1     0     0
SMALL
No Charge or Current Charge


@<TRIPOS>ATOM
      1 N           12.1370    36.9250     3.1150 n8         1 ALO      -0.868800
      2 CA          10.6680    36.5750     2.9450 c3         1 ALO       0.022500
      3 CB           9.7530    37.8360     3.0370 c3         1 ALO       0.157100
      4 CG2          9.9440    38.6480     4.3400 c3         1 ALO      -0.127100
      5 OG1          8.3760    37.4450     2.9720 oh         1 ALO      -0.578800
      6 C           10.2890    35.7150     1.6630 c          1 ALO       0.939600
      7 O           10.3870    36.2230     0.5470 o          1 ALO      -0.830300
      8 OXT         10.0430    34.5200     1.8120 o          1 ALO      -0.830300
      9 H           12.6830    36.0610     3.2000 hn         1 ALO       0.309800
     10 H2          12.2670    37.4060     4.0100 hn         1 ALO       0.309800
     11 HA          10.4220    35.9480     3.8130 h1         1 ALO       0.013700
     12 HB           9.9890    38.4940     2.1890 h1         1 ALO       0.056700
     13 HG21         9.2460    39.4940     4.3740 hc         1 ALO       0.019033
     14 HG22         9.7660    38.0220     5.2220 hc         1 ALO       0.019033
     15 HG23        10.9590    39.0570     4.4050 hc         1 ALO       0.019033
     16 HG1          7.8430    38.2590     3.0880 ho         1 ALO       0.368000
@<TRIPOS>BOND
     1     1     2 1   
     2     1     9 1   
     3     1    10 1   
     4     2     3 1   
     5     2     6 1   
     6     2    11 1   
     7     3     4 1   
     8     3     5 1   
     9     3    12 1   
    10     4    13 1   
    11     4    14 1   
    12     4    15 1   
    13     5    16 1   
    14     6     7 1   
    15     6     8 1   
@<TRIPOS>SUBSTRUCTURE
     1 ALO         1 TEMP              0 ****  ****    0 ROOT
