@<TRIPOS>MOLECULE
ALO
   16    15     1     0     0
SMALL
bcc


@<TRIPOS>ATOM
      1 N           12.0290    36.9670     3.0780 n8         1 ALO      -0.868800
      2 CA          10.6230    36.5660     3.0380 c3         1 ALO       0.022500
      3 CB           9.7500    37.8180     3.0740 c3         1 ALO       0.157100
      4 CG2          9.9580    38.6510     4.3310 c3         1 ALO      -0.127100
      5 OG1          8.4060    37.3790     2.9730 oh         1 ALO      -0.578800
      6 C           10.3530    35.7560     1.7440 c          1 ALO       0.939600
      7 O           10.5790    36.3440     0.6680 o          1 ALO      -0.830300
      8 OXT          9.9490    34.5850     1.8870 o          1 ALO      -0.830300
      9 H           12.6150    36.1620     2.8930 hn         1 ALO       0.309800
     10 H2          12.2710    37.2540     4.0180 hn         1 ALO       0.309800
     11 HA          10.3460    35.9400     3.9010 h1         1 ALO       0.013700
     12 HB          10.0230    38.4290     2.2030 h1         1 ALO       0.056700
     13 HG21         9.2870    39.5130     4.3430 hc         1 ALO       0.019033
     14 HG22         9.7690    38.0640     5.2320 hc         1 ALO       0.019033
     15 HG23        10.9730    39.0450     4.3860 hc         1 ALO       0.019033
     16 HG1          7.8390    38.1550     2.9630 ho         1 ALO       0.368000
@<TRIPOS>BOND
     1     1     2 1   
     2     1     9 1   
     3     1    10 1   
     4     2     3 1   
     5     2     6 1   
     6     2    11 1   
     7     3     4 1   
     8     3     5 1   
     9     3    12 1   
    10     4    13 1   
    11     4    14 1   
    12     4    15 1   
    13     5    16 1   
    14     6     7 1   
    15     6     8 1   
@<TRIPOS>SUBSTRUCTURE
     1 ALO         1 TEMP              0 ****  ****    0 ROOT
