@<TRIPOS>MOLECULE
ALP
   29    29     1     0     0
SMALL
No Charge or Current Charge


@<TRIPOS>ATOM
      1 C1          -0.9860    -0.3820     2.4000 c          1 ALP       0.751000
      2 O1          -1.4930     0.5270     3.0470 o          1 ALP      -0.741000
      3 O2          -1.4540    -1.5140     2.3640 o          1 ALP      -0.741000
      4 C2           0.2900    -0.0970     1.6070 c3         1 ALP      -0.189700
      5 C21          1.4350     0.2980     2.5620 c3         1 ALP       0.174600
      6 O22          1.7300    -0.7720     3.4640 oh         1 ALP      -0.645000
      7 C3          -0.0120     1.0040     0.5680 c5         1 ALP       0.430500
      8 S4           1.4200     1.3150    -0.5630 ss         1 ALP      -0.765000
      9 C5           0.8110     0.1230    -1.8670 c5         1 ALP       0.145000
     10 C51          0.7490     0.9170    -3.2020 c3         1 ALP      -0.061600
     11 C52          1.8450    -1.0220    -2.0130 c3         1 ALP      -0.061600
     12 C6          -0.5720    -0.3860    -1.3240 c5         1 ALP       0.031500
     13 C8          -1.5190    -0.7900    -2.5270 c          1 ALP       0.736000
     14 O81         -2.3450     0.0130    -2.9490 o          1 ALP      -0.739500
     15 O82         -1.4830    -1.9400    -2.9450 o          1 ALP      -0.739500
     16 N7          -1.0750     0.7030    -0.4030 n7         1 ALP      -0.786400
     17 H2           0.5970    -1.0180     1.1040 hc         1 ALP       0.062700
     18 H211         2.3340     0.5370     1.9800 h1         1 ALP       0.003200
     19 H212         1.1550     1.2010     3.1210 h1         1 ALP       0.003200
     20 H22          2.4800    -0.4730     4.0220 ho         1 ALP       0.393000
     21 H3          -0.2450     1.9320     1.1110 h2         1 ALP       0.065700
     22 H511         1.7250     1.3510    -3.4500 hc         1 ALP       0.027367
     23 H512         0.4590     0.2750    -4.0420 hc         1 ALP       0.027367
     24 H513         0.0280     1.7410    -3.1440 hc         1 ALP       0.027367
     25 H521         2.8270    -0.6390    -2.3140 hc         1 ALP       0.027367
     26 H522         1.9770    -1.5610    -1.0670 hc         1 ALP       0.027367
     27 H523         1.5250    -1.7500    -2.7680 hc         1 ALP       0.027367
     28 H6          -0.4340    -1.3140    -0.7540 h1         1 ALP       0.078700
     29 HN7         -1.2120     1.5460    -0.9660 hn         1 ALP       0.431000
@<TRIPOS>BOND
     1     1     2 1   
     2     1     3 1   
     3     1     4 1   
     4     4     5 1   
     5     4     7 1   
     6     4    17 1   
     7     5     6 1   
     8     5    18 1   
     9     5    19 1   
    10     6    20 1   
    11     7     8 1   
    12     7    16 1   
    13     7    21 1   
    14     8     9 1   
    15     9    10 1   
    16     9    11 1   
    17     9    12 1   
    18    10    22 1   
    19    10    23 1   
    20    10    24 1   
    21    11    25 1   
    22    11    26 1   
    23    11    27 1   
    24    12    13 1   
    25    12    16 1   
    26    12    28 1   
    27    13    14 1   
    28    13    15 1   
    29    16    29 1   
@<TRIPOS>SUBSTRUCTURE
     1 ALP         1 TEMP              0 ****  ****    0 ROOT
