@<TRIPOS>MOLECULE
ALP
   29    29     1     0     0
SMALL
abcg2


@<TRIPOS>ATOM
      1 C1          -1.0480    -0.2700     2.4290 c          1 ALP       0.751000
      2 O1          -1.5180     0.7810     2.9140 o          1 ALP      -0.741000
      3 O2          -1.5640    -1.4010     2.4810 o          1 ALP      -0.741000
      4 C2           0.3050    -0.1300     1.7000 c3         1 ALP      -0.189700
      5 C21          1.3630     0.3870     2.6550 c3         1 ALP       0.174600
      6 O22          1.4800    -0.5180     3.7350 oh         1 ALP      -0.645000
      7 C3           0.1350     0.8290     0.5230 c5         1 ALP       0.430500
      8 S4           1.6950     0.9010    -0.5110 ss         1 ALP      -0.765000
      9 C5           0.9190     0.0300    -1.9380 c5         1 ALP       0.145000
     10 C51          0.7060     1.0380    -3.0650 c3         1 ALP      -0.061600
     11 C52          1.8230    -1.1000    -2.4070 c3         1 ALP      -0.061600
     12 C6          -0.4160    -0.5090    -1.3370 c5         1 ALP       0.031500
     13 C8          -1.4580    -0.7960    -2.4390 c          1 ALP       0.736000
     14 O81         -2.3240     0.0780    -2.6330 o          1 ALP      -0.739500
     15 O82         -1.3310    -1.8730    -3.0530 o          1 ALP      -0.739500
     16 N7          -0.9140     0.4320    -0.3650 n7         1 ALP      -0.786400
     17 H2           0.6220    -1.1050     1.3170 hc         1 ALP       0.062700
     18 H211         2.3220     0.4950     2.1300 h1         1 ALP       0.003200
     19 H212         1.0710     1.3870     3.0030 h1         1 ALP       0.003200
     20 H22          2.1140    -0.1530     4.3590 ho         1 ALP       0.393000
     21 H3          -0.0670     1.8310     0.9030 h2         1 ALP       0.065700
     22 H511         1.6560     1.4940    -3.3480 hc         1 ALP       0.027367
     23 H512         0.2990     0.5500    -3.9530 hc         1 ALP       0.027367
     24 H513         0.0260     1.8390    -2.7760 hc         1 ALP       0.027367
     25 H521         2.7880    -0.7260    -2.7520 hc         1 ALP       0.027367
     26 H522         2.0040    -1.8180    -1.6060 hc         1 ALP       0.027367
     27 H523         1.3530    -1.6300    -3.2370 hc         1 ALP       0.027367
     28 H6          -0.1770    -1.4480    -0.8260 h1         1 ALP       0.078700
     29 HN7         -1.3080     1.2270    -0.8520 hn         1 ALP       0.431000
@<TRIPOS>BOND
     1     1     2 1   
     2     1     3 1   
     3     1     4 1   
     4     4     5 1   
     5     4     7 1   
     6     4    17 1   
     7     5     6 1   
     8     5    18 1   
     9     5    19 1   
    10     6    20 1   
    11     7     8 1   
    12     7    16 1   
    13     7    21 1   
    14     8     9 1   
    15     9    10 1   
    16     9    11 1   
    17     9    12 1   
    18    10    22 1   
    19    10    23 1   
    20    10    24 1   
    21    11    25 1   
    22    11    26 1   
    23    11    27 1   
    24    12    13 1   
    25    12    16 1   
    26    12    28 1   
    27    13    14 1   
    28    13    15 1   
    29    16    29 1   
@<TRIPOS>SUBSTRUCTURE
     1 ALP         1 TEMP              0 ****  ****    0 ROOT
