@<TRIPOS>MOLECULE
ALQ
   13    12     1     0     0
SMALL
bcc


@<TRIPOS>ATOM
      1 CM           1.2000     1.4050     0.4200 c3         1 ALQ      -0.054600
      2 CA           0.6940     0.2060    -0.3830 c3         1 ALQ      -0.196700
      3 CB           1.6070    -0.9970    -0.1960 c3         1 ALQ      -0.054600
      4 C           -0.7850    -0.0760    -0.0440 c          1 ALQ       0.928600
      5 O           -1.0810    -1.1990     0.4120 o          1 ALQ      -0.847800
      6 OXT         -1.5830     0.8640    -0.2540 o          1 ALQ      -0.847800
      7 HM1          2.2320     1.6480     0.1580 hc         1 ALQ       0.008200
      8 HM2          0.5900     2.2900     0.2400 hc         1 ALQ       0.008200
      9 HM3          1.1770     1.1980     1.4940 hc         1 ALQ       0.008200
     10 HA           0.7260     0.4920    -1.4420 hc         1 ALQ       0.022700
     11 HB1          1.6400    -1.3160     0.8470 hc         1 ALQ       0.008200
     12 HB2          1.2810    -1.8520    -0.7890 hc         1 ALQ       0.008200
     13 HB3          2.6300    -0.7580    -0.4990 hc         1 ALQ       0.008200
@<TRIPOS>BOND
     1     1     2 1   
     2     1     7 1   
     3     1     8 1   
     4     1     9 1   
     5     2     3 1   
     6     2     4 1   
     7     2    10 1   
     8     3    11 1   
     9     3    12 1   
    10     3    13 1   
    11     4     5 1   
    12     4     6 1   
@<TRIPOS>SUBSTRUCTURE
     1 ALQ         1 TEMP              0 ****  ****    0 ROOT
