@<TRIPOS>MOLECULE
ALQ
   13    12     1     0     0
SMALL
No Charge or Current Charge


@<TRIPOS>ATOM
      1 CM           1.2580     1.3330     0.6410 c3         1 ALQ      -0.054600
      2 CA           0.6950     0.2940    -0.3560 c3         1 ALQ      -0.196700
      3 CB           1.5650    -0.9850    -0.4090 c3         1 ALQ      -0.054600
      4 C           -0.7870    -0.0380    -0.0560 c          1 ALQ       0.718000
      5 O           -1.0690    -0.5600     1.0130 o          1 ALQ      -0.742500
      6 OXT         -1.6200     0.2370    -0.9070 o          1 ALQ      -0.742500
      7 HM1          2.2820     1.6170     0.3670 hc         1 ALQ       0.008200
      8 HM2          0.6420     2.2400     0.6380 hc         1 ALQ       0.008200
      9 HM3          1.2750     0.9320     1.6610 hc         1 ALQ       0.008200
     10 HA           0.7390     0.7510    -1.3530 hc         1 ALQ       0.022700
     11 HB1          1.5940    -1.4820     0.5680 hc         1 ALQ       0.008200
     12 HB2          1.1620    -1.6930    -1.1430 hc         1 ALQ       0.008200
     13 HB3          2.5930    -0.7410    -0.7010 hc         1 ALQ       0.008200
@<TRIPOS>BOND
     1     1     2 1   
     2     1     7 1   
     3     1     8 1   
     4     1     9 1   
     5     2     3 1   
     6     2     4 1   
     7     2    10 1   
     8     3    11 1   
     9     3    12 1   
    10     3    13 1   
    11     4     5 1   
    12     4     6 1   
@<TRIPOS>SUBSTRUCTURE
     1 ALQ         1 TEMP              0 ****  ****    0 ROOT
