@<TRIPOS>MOLECULE
ALR
   27    29     1     0     0
SMALL
bcc


@<TRIPOS>ATOM
      1 C1          -1.2320    -0.1750    -0.8090 ca         1 ALR      -0.125600
      2 C2           1.2100    -0.1600    -0.8150 ca         1 ALR      -0.125600
      3 C3           1.2180    -0.4410     0.6330 c          1 ALR       0.732600
      4 C4          -1.2300    -0.4460     0.6400 c          1 ALR       0.732600
      5 O5           2.2520    -0.5180     1.2650 o          1 ALR      -0.598000
      6 O6          -2.2600    -0.5200     1.2800 o          1 ALR      -0.598000
      7 C8          -0.0130    -0.0410    -1.5020 ca         1 ALR       0.011000
      8 C9          -0.0180     0.2200    -2.8910 ca         1 ALR      -0.056000
      9 C10          1.2170     0.3570    -3.5610 ca         1 ALR      -0.105000
     10 C11          2.3980     0.2450    -2.8750 ca         1 ALR      -0.146000
     11 C12          2.3960    -0.0150    -1.4950 ca         1 ALR      -0.066000
     12 C16         -2.4240    -0.0500    -1.4850 ca         1 ALR      -0.066000
     13 C17         -2.4350     0.2050    -2.8660 ca         1 ALR      -0.146000
     14 C18         -1.2580     0.3350    -3.5570 ca         1 ALR      -0.105000
     15 N22         -0.0040    -0.6480     1.2460 n          1 ALR      -0.450400
     16 C23          0.0100     0.4900     3.4660 c          1 ALR       0.933600
     17 O24          0.0230     1.5390     2.8030 o          1 ALR      -0.829300
     18 O27          0.0030     0.3610     4.7040 o          1 ALR      -0.829300
     19 H71          0.8740    -1.4360     2.9560 h1         1 ALR       0.052700
     20 H72         -0.8730    -1.4300     2.9630 h1         1 ALR       0.052700
     21 H10          1.2200     0.5530    -4.6260 ha         1 ALR       0.121000
     22 H11          3.3410     0.3560    -3.3940 ha         1 ALR       0.125000
     23 H12          3.3360    -0.1050    -0.9670 ha         1 ALR       0.154000
     24 H16         -3.3600    -0.1510    -0.9530 ha         1 ALR       0.154000
     25 H17         -3.3810     0.2980    -3.3820 ha         1 ALR       0.125000
     26 H18         -1.2690     0.5280    -4.6220 ha         1 ALR       0.121000
     27 C7           0.0010    -0.8440     2.6860 c3         1 ALR      -0.070000
@<TRIPOS>BOND
     1     1     4 1   
     2     1     7 ar  
     3     1    12 ar  
     4     2     3 1   
     5     2     7 ar  
     6     2    11 ar  
     7     3     5 2   
     8     3    15 1   
     9     4     6 2   
    10     4    15 1   
    11     7     8 ar  
    12     8     9 ar  
    13     8    14 ar  
    14     9    10 ar  
    15     9    21 1   
    16    10    11 ar  
    17    10    22 1   
    18    11    23 1   
    19    12    13 ar  
    20    12    24 1   
    21    13    14 ar  
    22    13    25 1   
    23    14    26 1   
    24    15    27 1   
    25    16    17 1   
    26    16    18 1   
    27    16    27 1   
    28    19    27 1   
    29    20    27 1   
@<TRIPOS>SUBSTRUCTURE
     1 ALR         1 TEMP              0 ****  ****    0 ROOT
