@<TRIPOS>MOLECULE
ALR
   27    29     1     0     0
SMALL
No Charge or Current Charge


@<TRIPOS>ATOM
      1 C1          -1.2690    -0.1900    -0.8670 ca         1 ALR      -0.125600
      2 C2           1.1690    -0.1320    -0.8120 ca         1 ALR      -0.125600
      3 C3           1.1600    -0.3970     0.6700 c          1 ALR       0.590100
      4 C4          -1.3150    -0.4540     0.6150 c          1 ALR       0.590100
      5 O5           2.2070    -0.4810     1.3010 o          1 ALR      -0.522500
      6 O6          -2.3890    -0.5810     1.1950 o          1 ALR      -0.522500
      7 C8          -0.0370    -0.0380    -1.5330 ca         1 ALR       0.011000
      8 C9          -0.0110     0.2110    -2.9260 ca         1 ALR      -0.056000
      9 C10          1.2170     0.3640    -3.5930 ca         1 ALR      -0.087000
     10 C11          2.4190     0.2710    -2.8770 ca         1 ALR      -0.128000
     11 C12          2.3970     0.0250    -1.4950 ca         1 ALR      -0.048000
     12 C16         -2.4710    -0.0920    -1.6060 ca         1 ALR      -0.048000
     13 C17         -2.4410     0.1540    -2.9880 ca         1 ALR      -0.128000
     14 C18         -1.2140     0.3060    -3.6480 ca         1 ALR      -0.087000
     15 N22         -0.0890    -0.5500     1.2970 n          1 ALR      -0.316400
     16 C23          0.2480     0.4340     3.6480 c          1 ALR       0.723000
     17 O24         -0.0960     1.5410     3.2560 o          1 ALR      -0.724000
     18 O27          0.8590     0.2490     4.6900 o          1 ALR      -0.724000
     19 H71          0.6270    -1.5880     3.0110 h1         1 ALR       0.052700
     20 H72         -1.0770    -1.1670     3.1130 h1         1 ALR       0.052700
     21 H10          1.2410     0.5560    -4.6640 ha         1 ALR       0.103000
     22 H11          3.3690     0.3900    -3.3930 ha         1 ALR       0.107000
     23 H12          3.3410    -0.0440    -0.9570 ha         1 ALR       0.136000
     24 H16         -3.4340    -0.2060    -1.1120 ha         1 ALR       0.136000
     25 H17         -3.3710     0.2280    -3.5460 ha         1 ALR       0.107000
     26 H18         -1.1990     0.4970    -4.7190 ha         1 ALR       0.103000
     27 C7          -0.0990    -0.7990     2.7810 c3         1 ALR      -0.070000
@<TRIPOS>BOND
     1     1     4 1   
     2     1     7 ar  
     3     1    12 ar  
     4     2     3 1   
     5     2     7 ar  
     6     2    11 ar  
     7     3     5 2   
     8     3    15 1   
     9     4     6 2   
    10     4    15 1   
    11     7     8 ar  
    12     8     9 ar  
    13     8    14 ar  
    14     9    10 ar  
    15     9    21 1   
    16    10    11 ar  
    17    10    22 1   
    18    11    23 1   
    19    12    13 ar  
    20    12    24 1   
    21    13    14 ar  
    22    13    25 1   
    23    14    26 1   
    24    15    27 1   
    25    16    17 1   
    26    16    18 1   
    27    16    27 1   
    28    19    27 1   
    29    20    27 1   
@<TRIPOS>SUBSTRUCTURE
     1 ALR         1 TEMP              0 ****  ****    0 ROOT
