@<TRIPOS>MOLECULE
ALS
   17    16     1     0     0
SMALL
bcc


@<TRIPOS>ATOM
      1 C           29.8500    11.1670    26.8570 c          1 ALS       0.941600
      2 O           28.7230    10.9260    26.3840 o          1 ALS      -0.851300
      3 CA          29.9480    11.2240    28.4050 c3         1 ALS       0.030500
      4 N           30.6250    10.0220    28.8830 n8         1 ALS      -0.863800
      5 CB          30.7560    12.4320    28.8430 c3         1 ALS       0.398900
      6 OG          30.1340    13.5800    28.3760 oh         1 ALS      -0.611800
      7 OS1         30.7830    12.4260    30.2710 os         1 ALS      -0.614500
      8 S           32.0960    13.0870    31.0110 s6         1 ALS       1.507300
      9 OS2         33.1550    12.0820    30.8980 o          1 ALS      -0.732867
     10 OS3         32.3760    14.3230    30.2660 o          1 ALS      -0.732867
     11 OS4         31.5930    13.2870    32.3670 o          1 ALS      -0.732867
     12 OXT         30.9110    11.3340    26.2260 o          1 ALS      -0.851300
     13 HA          28.9320    11.3310    28.8130 h1         1 ALS       0.015700
     14 H2          30.5680     9.9830    29.8930 hn         1 ALS       0.312800
     15 H           30.1280     9.2040    28.5520 hn         1 ALS       0.312800
     16 HB          31.7760    12.3320    28.4550 h2         1 ALS       0.061700
     17 HG          30.7290    14.3240    28.5210 ho         1 ALS       0.408000
@<TRIPOS>BOND
     1     1     2 1   
     2     1     3 1   
     3     1    12 1   
     4     3     4 1   
     5     3     5 1   
     6     3    13 1   
     7     4    14 1   
     8     4    15 1   
     9     5     6 1   
    10     5     7 1   
    11     5    16 1   
    12     6    17 1   
    13     7     8 1   
    14     8     9 1   
    15     8    10 1   
    16     8    11 1   
@<TRIPOS>SUBSTRUCTURE
     1 ALS         1 TEMP              0 ****  ****    0 ROOT
