@<TRIPOS>MOLECULE
ALS
   17    16     1     0     0
SMALL
No Charge or Current Charge


@<TRIPOS>ATOM
      1 C           29.9570    11.1840    26.7570 c          1 ALS       0.941600
      2 O           28.8640    11.0890    26.2040 o          1 ALS      -0.851300
      3 CA          30.0110    11.1460    28.3350 c3         1 ALS       0.030500
      4 N           30.4000     9.8180    28.9810 n8         1 ALS      -0.863800
      5 CB          30.8760    12.3490    28.8220 c3         1 ALS       0.398900
      6 OG          30.2790    13.5740    28.4140 oh         1 ALS      -0.611800
      7 OS1         30.9100    12.3240    30.2480 os         1 ALS      -0.614500
      8 S           32.0910    13.2160    30.9440 s6         1 ALS       1.507300
      9 OS2         33.3370    12.5990    30.4690 o          1 ALS      -0.732867
     10 OS3         31.8530    14.5710    30.4240 o          1 ALS      -0.732867
     11 OS4         31.8470    13.0650    32.3850 o          1 ALS      -0.732867
     12 OXT         31.0070    11.1810    26.1170 o          1 ALS      -0.851300
     13 HA          28.9870    11.3420    28.6820 h1         1 ALS       0.015700
     14 H2          30.4410     9.9610    29.9950 hn         1 ALS       0.312800
     15 H           29.6470     9.1380    28.8380 hn         1 ALS       0.312800
     16 HB          31.8830    12.2700    28.3910 h2         1 ALS       0.061700
     17 HG          30.6930    14.2370    29.0150 ho         1 ALS       0.408000
@<TRIPOS>BOND
     1     1     2 1   
     2     1     3 1   
     3     1    12 1   
     4     3     4 1   
     5     3     5 1   
     6     3    13 1   
     7     4    14 1   
     8     4    15 1   
     9     5     6 1   
    10     5     7 1   
    11     5    16 1   
    12     6    17 1   
    13     7     8 1   
    14     8     9 1   
    15     8    10 1   
    16     8    11 1   
@<TRIPOS>SUBSTRUCTURE
     1 ALS         1 TEMP              0 ****  ****    0 ROOT
