@<TRIPOS>MOLECULE
ALT
   13    12     1     0     0
SMALL
No Charge or Current Charge


@<TRIPOS>ATOM
      1 N           -1.3740     0.5120     1.1880 n8         1 ALT      -0.870800
      2 CA           0.1020     0.3190     1.0710 c3         1 ALT       0.120500
      3 CB           0.5590    -0.7820     2.0490 c3         1 ALT      -0.132100
      4 C            0.5390     0.0340    -0.3900 cs         1 ALT       0.482500
      5 S           -0.0290    -1.2210    -1.3440 s          1 ALT      -0.496400
      6 OXT          1.4580     0.8930    -0.8400 oh         1 ALT      -0.515100
      7 H           -1.6260     0.6120     2.1770 hn         1 ALT       0.356300
      8 H2          -1.8490    -0.3480     0.8920 hn         1 ALT       0.356300
      9 HA           0.5890     1.2590     1.3700 h1         1 ALT       0.087700
     10 HB1          0.2900    -0.5250     3.0810 hc         1 ALT       0.050033
     11 HB2          0.0990    -1.7470     1.8010 hc         1 ALT       0.050033
     12 HB3          1.6480    -0.9020     2.0050 hc         1 ALT       0.050033
     13 HXT          1.6430     0.6040    -1.7550 ho         1 ALT       0.461000
@<TRIPOS>BOND
     1     1     2 1   
     2     1     7 1   
     3     1     8 1   
     4     2     3 1   
     5     2     4 1   
     6     2     9 1   
     7     3    10 1   
     8     3    11 1   
     9     3    12 1   
    10     4     5 2   
    11     4     6 1   
    12     6    13 1   
@<TRIPOS>SUBSTRUCTURE
     1 ALT         1 TEMP              0 ****  ****    0 ROOT
