@<TRIPOS>MOLECULE
ALT
   13    12     1     0     0
SMALL
bcc


@<TRIPOS>ATOM
      1 N           -1.4480     0.3960     1.1660 n8         1 ALT      -0.870800
      2 CA          -0.0070     0.3450     1.0600 c3         1 ALT       0.120500
      3 CB           0.6660    -0.7010     1.9640 c3         1 ALT      -0.132100
      4 C            0.4240     0.0750    -0.3600 cs         1 ALT       0.482500
      5 S           -0.4540    -0.7660    -1.4530 s          1 ALT      -0.496400
      6 OXT          1.6290     0.5380    -0.5960 oh         1 ALT      -0.515100
      7 H           -1.6930     0.5960     2.1280 hn         1 ALT       0.356300
      8 H2          -1.8390    -0.5160     0.9590 hn         1 ALT       0.356300
      9 HA           0.3830     1.3310     1.3320 h1         1 ALT       0.087700
     10 HB1          0.3990    -0.5020     3.0020 hc         1 ALT       0.050033
     11 HB2          0.3210    -1.7040     1.7080 hc         1 ALT       0.050033
     12 HB3          1.7530    -0.6790     1.8870 hc         1 ALT       0.050033
     13 HXT          1.9160     0.2950    -1.4910 ho         1 ALT       0.461000
@<TRIPOS>BOND
     1     1     2 1   
     2     1     7 1   
     3     1     8 1   
     4     2     3 1   
     5     2     4 1   
     6     2     9 1   
     7     3    10 1   
     8     3    11 1   
     9     3    12 1   
    10     4     5 2   
    11     4     6 1   
    12     6    13 1   
@<TRIPOS>SUBSTRUCTURE
     1 ALT         1 TEMP              0 ****  ****    0 ROOT
