@<TRIPOS>MOLECULE
ALU
   14    13     1     0     0
SMALL
bcc


@<TRIPOS>ATOM
      1 O3          -1.2230    -0.8360     0.0710 os         1 ALU      -0.562200
      2 C5          -2.6140    -0.6150    -0.0800 c3         1 ALU       0.184700
      3 C3           2.6040     0.4470    -0.0910 c3         1 ALU      -0.216100
      4 C2           1.3950    -0.4340     0.0670 c          1 ALU       0.469100
      5 O5           1.4810    -1.6230     0.2810 o          1 ALU      -0.543100
      6 O2          -0.3110     1.0060    -1.4910 o          1 ALU      -0.811500
      7 O1          -0.3650     1.3730     1.0900 o          1 ALU      -0.811500
      8 P1          -0.2290     0.4580    -0.0940 p5         1 ALU       1.137400
      9 H5C1        -2.9870     0.1430     0.6150 h1         1 ALU       0.008700
     10 H5C2        -2.8710    -0.3050    -1.0950 h1         1 ALU       0.008700
     11 H5C3        -3.1270    -1.5520     0.1340 h1         1 ALU       0.008700
     12 H3C1         2.5840     0.9300    -1.0700 hc         1 ALU       0.042700
     13 H3C2         2.5760     1.2490     0.6500 hc         1 ALU       0.042700
     14 H3C3         3.5310    -0.1140     0.0170 hc         1 ALU       0.042700
@<TRIPOS>BOND
     1     1     2 1   
     2     1     8 1   
     3     2     9 1   
     4     2    10 1   
     5     2    11 1   
     6     3     4 1   
     7     3    12 1   
     8     3    13 1   
     9     3    14 1   
    10     4     5 2   
    11     4     8 1   
    12     6     8 1   
    13     7     8 1   
@<TRIPOS>SUBSTRUCTURE
     1 ALU         1 TEMP              0 ****  ****    0 ROOT
