@<TRIPOS>MOLECULE
ALU
   14    13     1     0     0
SMALL
No Charge or Current Charge


@<TRIPOS>ATOM
      1 O3          -1.2790    -0.8320     0.0320 os         1 ALU      -0.585400
      2 C5          -2.6920    -0.6220    -0.0490 c3         1 ALU       0.207900
      3 C3           2.7160     0.4350    -0.0590 c3         1 ALU      -0.216100
      4 C2           1.4720    -0.4620     0.0560 c          1 ALU       0.469100
      5 O5           1.6180    -1.6710     0.2690 o          1 ALU      -0.543100
      6 O2          -0.3850     1.0100    -1.5360 o          1 ALU      -0.811500
      7 O1          -0.4640     1.4390     0.9450 o          1 ALU      -0.811500
      8 P1          -0.2810     0.4330    -0.1540 p5         1 ALU       1.137400
      9 H5C1        -3.0290     0.0810     0.7240 h1         1 ALU       0.008700
     10 H5C2        -2.9730    -0.2220    -1.0320 h1         1 ALU       0.008700
     11 H5C3        -3.2250    -1.5700     0.0980 h1         1 ALU       0.008700
     12 H3C1         2.6820     0.9680    -1.0170 hc         1 ALU       0.042700
     13 H3C2         2.6280     1.2570     0.6610 hc         1 ALU       0.042700
     14 H3C3         3.6560    -0.1150     0.0650 hc         1 ALU       0.042700
@<TRIPOS>BOND
     1     1     2 1   
     2     1     8 1   
     3     2     9 1   
     4     2    10 1   
     5     2    11 1   
     6     3     4 1   
     7     3    12 1   
     8     3    13 1   
     9     3    14 1   
    10     4     5 2   
    11     4     8 1   
    12     6     8 1   
    13     7     8 1   
@<TRIPOS>SUBSTRUCTURE
     1 ALU         1 TEMP              0 ****  ****    0 ROOT
