@<TRIPOS>MOLECULE
ALV
   15    14     1     0     0
SMALL
bcc


@<TRIPOS>ATOM
      1 C          -19.8620    16.9000    10.1210 c3         1 ALV       0.351900
      2 N          -21.1010    18.6200    11.2970 n8         1 ALV      -0.895800
      3 O          -19.6570    15.5220     9.9340 oh         1 ALV      -0.609800
      4 CA         -20.9290    17.1780    11.1790 c3         1 ALV       0.145500
      5 CB         -22.2560    16.5490    10.7830 c3         1 ALV      -0.097100
      6 OXT        -18.6710    17.4580    10.5680 oh         1 ALV      -0.609800
      7 H          -21.8330    18.8160    11.9680 hn         1 ALV       0.348300
      8 H2         -20.2590    19.0380    11.6730 hn         1 ALV       0.348300
      9 HO         -20.2680    15.2010     9.2640 ho         1 ALV       0.415500
     10 HA         -20.5930    16.7060    12.1170 h1         1 ALV       0.043700
     11 HB1        -23.0290    16.7960    11.5130 hc         1 ALV       0.040033
     12 HB2        -22.5900    16.9160     9.8100 hc         1 ALV       0.040033
     13 HB3        -22.1910    15.4630    10.7400 hc         1 ALV       0.040033
     14 HXT        -18.0440    17.4900     9.8390 ho         1 ALV       0.415500
     15 H1         -20.1890    17.3640     9.1760 h2         1 ALV       0.023700
@<TRIPOS>BOND
     1     1     3 1   
     2     1     4 1   
     3     1     6 1   
     4     1    15 1   
     5     2     4 1   
     6     2     7 1   
     7     2     8 1   
     8     3     9 1   
     9     4     5 1   
    10     4    10 1   
    11     5    11 1   
    12     5    12 1   
    13     5    13 1   
    14     6    14 1   
@<TRIPOS>SUBSTRUCTURE
     1 ALV         1 TEMP              0 ****  ****    0 ROOT
