@<TRIPOS>MOLECULE
ALV
   15    14     1     0     0
SMALL
No Charge or Current Charge


@<TRIPOS>ATOM
      1 C          -19.9190    16.8170    10.1060 c3         1 ALV       0.351900
      2 N          -21.1370    18.6480    11.3980 n8         1 ALV      -0.895800
      3 O          -19.6970    15.4150    10.0620 oh         1 ALV      -0.609800
      4 CA         -21.0230    17.1830    11.1680 c3         1 ALV       0.145500
      5 CB         -22.4140    16.6160    10.8090 c3         1 ALV      -0.097100
      6 OXT        -18.6730    17.4100    10.4510 oh         1 ALV      -0.609800
      7 H          -21.6000    18.8100    12.2980 hn         1 ALV       0.348300
      8 H2         -20.1890    19.0180    11.5320 hn         1 ALV       0.348300
      9 HO         -19.3870    15.2130     9.1550 ho         1 ALV       0.415500
     10 HA         -20.7120    16.7350    12.1220 h1         1 ALV       0.043700
     11 HB1        -23.1520    16.8780    11.5770 hc         1 ALV       0.040033
     12 HB2        -22.7610    17.0130     9.8470 hc         1 ALV       0.040033
     13 HB3        -22.3810    15.5230    10.7370 hc         1 ALV       0.040033
     14 HXT        -18.2010    17.5690     9.6080 ho         1 ALV       0.415500
     15 H1         -20.2260    17.1700     9.1130 h2         1 ALV       0.023700
@<TRIPOS>BOND
     1     1     3 1   
     2     1     4 1   
     3     1     6 1   
     4     1    15 1   
     5     2     4 1   
     6     2     7 1   
     7     2     8 1   
     8     3     9 1   
     9     4     5 1   
    10     4    10 1   
    11     5    11 1   
    12     5    12 1   
    13     5    13 1   
    14     6    14 1   
@<TRIPOS>SUBSTRUCTURE
     1 ALV         1 TEMP              0 ****  ****    0 ROOT
