@<TRIPOS>MOLECULE
ALW
   34    35     1     0     0
SMALL
No Charge or Current Charge


@<TRIPOS>ATOM
      1 S1          -0.3630     0.9060     3.8330 sx         1 ALW       0.226200
      2 C11          0.2110    -0.8130     4.2490 c3         1 ALW      -0.033100
      3 CX5          0.6120    -0.9390     5.7330 c3         1 ALW      -0.054400
      4 C            1.0780    -2.3590     6.1070 c3         1 ALW      -0.085100
      5 N            1.0470     0.3120    -1.2680 nc         1 ALW      -0.616100
      6 C7           0.2500     0.0620    -2.3190 cd         1 ALW       0.499400
      7 N1          -1.1050    -0.0440    -1.9910 na         1 ALW      -0.318600
      8 C3A         -1.1310     0.1560    -0.6410 ca         1 ALW      -0.053200
      9 C7A          0.1480     0.3680    -0.2140 ca         1 ALW       0.075400
     10 C1          -2.2300     0.1600     0.2270 ca         1 ALW      -0.119000
     11 C2          -1.9860     0.3940     1.5960 ca         1 ALW      -0.048000
     12 C3          -0.6650     0.6140     2.0520 ca         1 ALW      -0.093500
     13 C4           0.4180     0.6030     1.1430 ca         1 ALW       0.021000
     14 C5           0.0740    -0.3210    -4.7280 c          1 ALW       0.657100
     15 O            0.9660    -0.3740    -5.7580 os         1 ALW      -0.439100
     16 C6           0.4510    -0.6330    -7.0780 c3         1 ALW       0.169900
     17 O1          -1.1340    -0.4760    -4.8270 o          1 ALW      -0.540000
     18 O2           0.8280     1.8410     3.9510 o          1 ALW      -0.510000
     19 H111         1.0640    -1.0450     3.5990 h1         1 ALW       0.077700
     20 H112        -0.6140    -1.4980     4.0180 h1         1 ALW       0.077700
     21 H3'1        -0.2420    -0.6630     6.3640 hc         1 ALW       0.046700
     22 H3'2         1.4180    -0.2280     5.9530 hc         1 ALW       0.046700
     23 HC1          1.3530    -2.4040     7.1680 hc         1 ALW       0.033367
     24 HC2          0.2790    -3.0890     5.9280 hc         1 ALW       0.033367
     25 HC3          1.9520    -2.6500     5.5130 hc         1 ALW       0.033367
     26 H1          -1.8670    -0.2280    -2.6300 hn         1 ALW       0.389000
     27 H2          -3.2400    -0.0120    -0.1400 ha         1 ALW       0.122000
     28 HB          -2.8150     0.4020     2.3000 ha         1 ALW       0.113000
     29 H4           1.4360     0.7710     1.4810 ha         1 ALW       0.156000
     30 HA           1.7470     0.0270    -3.6970 hn         1 ALW       0.368500
     31 H6C1         1.2680    -0.6490    -7.8100 h1         1 ALW       0.056700
     32 H6C2        -0.0590    -1.6040    -7.1170 h1         1 ALW       0.056700
     33 H6C3        -0.2600     0.1460    -7.3810 h1         1 ALW       0.056700
     34 N2           0.7520    -0.0700    -3.5760 ns         1 ALW      -0.403400
@<TRIPOS>BOND
     1     1     2 1   
     2     1    12 1   
     3     1    18 2   
     4     2     3 1   
     5     2    19 1   
     6     2    20 1   
     7     3     4 1   
     8     3    21 1   
     9     3    22 1   
    10     4    23 1   
    11     4    24 1   
    12     4    25 1   
    13     5     6 2   
    14     5     9 1   
    15     6     7 1   
    16     6    34 1   
    17     7     8 1   
    18     7    26 1   
    19     8     9 ar  
    20     8    10 ar  
    21     9    13 ar  
    22    10    11 ar  
    23    10    27 1   
    24    11    12 ar  
    25    11    28 1   
    26    12    13 ar  
    27    13    29 1   
    28    14    15 1   
    29    14    17 2   
    30    14    34 1   
    31    15    16 1   
    32    16    31 1   
    33    16    32 1   
    34    16    33 1   
    35    30    34 1   
@<TRIPOS>SUBSTRUCTURE
     1 ALW         1 TEMP              0 ****  ****    0 ROOT
