@<TRIPOS>MOLECULE
ALW
   34    35     1     0     0
SMALL
bcc


@<TRIPOS>ATOM
      1 S1          -0.2260     0.8800     3.7230 sx         1 ALW       0.199400
      2 C11          0.1450    -0.8250     4.2370 c3         1 ALW      -0.033100
      3 CX5          0.5080    -0.8660     5.7130 c3         1 ALW      -0.054400
      4 C            0.8580    -2.2810     6.1550 c3         1 ALW      -0.085100
      5 N            1.1120     0.4540    -1.3310 nc         1 ALW      -0.616100
      6 C7           0.3480     0.1280    -2.3370 cd         1 ALW       0.499400
      7 N1          -0.9380    -0.1250    -1.9920 na         1 ALW      -0.268300
      8 C3A         -1.0210     0.0500    -0.6350 ca         1 ALW      -0.053200
      9 C7A          0.2790     0.4140    -0.2400 ca         1 ALW       0.075400
     10 C1          -2.0760    -0.0630     0.2570 ca         1 ALW      -0.137000
     11 C2          -1.7980     0.2010     1.5880 ca         1 ALW      -0.066000
     12 C3          -0.5030     0.5460     1.9880 ca         1 ALW      -0.093500
     13 C4           0.5500     0.6740     1.0990 ca         1 ALW       0.003000
     14 C5           0.0900    -0.2720    -4.7240 c          1 ALW       0.773100
     15 O            0.8590    -0.2600    -5.7980 os         1 ALW      -0.415900
     16 C6           0.2380    -0.5820    -7.0450 c3         1 ALW       0.146700
     17 O1          -1.0920    -0.5300    -4.7120 o          1 ALW      -0.589000
     18 O2           1.0750     1.6390     3.8440 o          1 ALW      -0.483200
     19 H111         0.9630    -1.1850     3.6080 h1         1 ALW       0.077700
     20 H112        -0.7460    -1.4210     4.0250 h1         1 ALW       0.077700
     21 H3'1        -0.3260    -0.4870     6.3090 hc         1 ALW       0.046700
     22 H3'2         1.3560    -0.2040     5.8960 hc         1 ALW       0.046700
     23 HC1          1.1380    -2.2990     7.2080 hc         1 ALW       0.033367
     24 HC2          0.0150    -2.9590     6.0230 hc         1 ALW       0.033367
     25 HC3          1.6970    -2.6760     5.5800 hc         1 ALW       0.033367
     26 H1          -1.6780    -0.3830    -2.6270 hn         1 ALW       0.338700
     27 H2          -3.0730    -0.3310    -0.0650 ha         1 ALW       0.140000
     28 HB          -2.5930     0.1420     2.3210 ha         1 ALW       0.131000
     29 H4           1.5380     0.9650     1.4300 ha         1 ALW       0.174000
     30 HA           1.8110     0.2480    -3.7240 hn         1 ALW       0.368500
     31 H6C1         1.0240    -0.5080    -7.7900 h1         1 ALW       0.056700
     32 H6C2        -0.1620    -1.5940    -7.0370 h1         1 ALW       0.056700
     33 H6C3        -0.5570     0.1230    -7.2860 h1         1 ALW       0.056700
     34 N2           0.8250     0.0500    -3.6180 ns         1 ALW      -0.470400
@<TRIPOS>BOND
     1     1     2 1   
     2     1    12 1   
     3     1    18 2   
     4     2     3 1   
     5     2    19 1   
     6     2    20 1   
     7     3     4 1   
     8     3    21 1   
     9     3    22 1   
    10     4    23 1   
    11     4    24 1   
    12     4    25 1   
    13     5     6 2   
    14     5     9 1   
    15     6     7 1   
    16     6    34 1   
    17     7     8 1   
    18     7    26 1   
    19     8     9 ar  
    20     8    10 ar  
    21     9    13 ar  
    22    10    11 ar  
    23    10    27 1   
    24    11    12 ar  
    25    11    28 1   
    26    12    13 ar  
    27    13    29 1   
    28    14    15 1   
    29    14    17 2   
    30    14    34 1   
    31    15    16 1   
    32    16    31 1   
    33    16    32 1   
    34    16    33 1   
    35    30    34 1   
@<TRIPOS>SUBSTRUCTURE
     1 ALW         1 TEMP              0 ****  ****    0 ROOT
