@<TRIPOS>MOLECULE
ALY
   28    27     1     0     0
SMALL
bcc


@<TRIPOS>ATOM
      1 OH          10.2160    20.1340    -7.1400 o          1 ALY      -0.613100
      2 CH          11.0460    21.0340    -7.1190 c          1 ALY       0.663100
      3 CH3         11.0080    22.1210    -6.0710 c3         1 ALY      -0.182100
      4 NZ          12.0460    21.1300    -8.0100 ns         1 ALY      -0.571900
      5 CE          12.2330    20.2150    -9.1160 c3         1 ALY       0.099000
      6 CD          11.3570    20.5360   -10.3230 c3         1 ALY      -0.095400
      7 CG          11.5730    19.5900   -11.5020 c3         1 ALY      -0.072400
      8 CB          12.9540    19.7050   -12.1380 c3         1 ALY      -0.051400
      9 CA          13.1410    18.8540   -13.3960 c3         1 ALY       0.019500
     10 N           14.5410    18.9420   -13.8060 n8         1 ALY      -0.858800
     11 C           12.2060    19.3570   -14.5240 c          1 ALY       0.925600
     12 O           12.5290    20.4170   -15.0950 o          1 ALY      -0.831800
     13 OXT         11.1870    18.6700   -14.7510 o          1 ALY      -0.831800
     14 HH31        11.8570    22.8000    -6.1170 hc         1 ALY       0.051700
     15 HH32        10.0940    22.7040    -6.1880 hc         1 ALY       0.051700
     16 HH33        10.9790    21.6690    -5.0800 hc         1 ALY       0.051700
     17 HZ          12.6630    21.9230    -7.9530 hn         1 ALY       0.303500
     18 HE3         13.2890    20.2560    -9.3840 h1         1 ALY       0.050700
     19 HE2         12.0360    19.1970    -8.7740 h1         1 ALY       0.050700
     20 HD3         10.3100    20.4960   -10.0150 hc         1 ALY       0.039700
     21 HD2         11.5500    21.5650   -10.6440 hc         1 ALY       0.039700
     22 HG3         11.4020    18.5570   -11.1780 hc         1 ALY       0.054200
     23 HG2         10.8050    19.7970   -12.2500 hc         1 ALY       0.054200
     24 HB3         13.1590    20.7500   -12.3900 hc         1 ALY       0.021200
     25 HB2         13.7180    19.4130   -11.4080 hc         1 ALY       0.021200
     26 HCA         12.8450    17.8230   -13.1490 h1         1 ALY       0.000700
     27 H           14.6880    18.3840   -14.6380 hn         1 ALY       0.304800
     28 H2          15.1160    18.5120   -13.0910 hn         1 ALY       0.304800
@<TRIPOS>BOND
     1     1     2 2   
     2     2     3 1   
     3     2     4 1   
     4     3    14 1   
     5     3    15 1   
     6     3    16 1   
     7     4     5 1   
     8     4    17 1   
     9     5     6 1   
    10     5    18 1   
    11     5    19 1   
    12     6     7 1   
    13     6    20 1   
    14     6    21 1   
    15     7     8 1   
    16     7    22 1   
    17     7    23 1   
    18     8     9 1   
    19     8    24 1   
    20     8    25 1   
    21     9    10 1   
    22     9    11 1   
    23     9    26 1   
    24    10    27 1   
    25    10    28 1   
    26    11    12 1   
    27    11    13 1   
@<TRIPOS>SUBSTRUCTURE
     1 ALY         1 TEMP              0 ****  ****    0 ROOT
