@<TRIPOS>MOLECULE
ALY
   28    27     1     0     0
SMALL
No Charge or Current Charge


@<TRIPOS>ATOM
      1 OH          10.2240    20.0650    -7.1400 o          1 ALY      -0.613100
      2 CH          11.0180    20.9920    -7.0640 c          1 ALY       0.663100
      3 CH3         10.9440    22.0500    -5.9700 c3         1 ALY      -0.182100
      4 NZ          12.0520    21.1580    -7.9570 ns         1 ALY      -0.571900
      5 CE          12.3160    20.2900    -9.1080 c3         1 ALY       0.099000
      6 CD          11.3950    20.6190   -10.3040 c3         1 ALY      -0.095400
      7 CG          11.5820    19.6870   -11.5250 c3         1 ALY      -0.072400
      8 CB          12.9680    19.8020   -12.2110 c3         1 ALY      -0.051400
      9 CA          13.1380    18.8810   -13.4510 c3         1 ALY       0.019500
     10 N           14.5820    18.8860   -13.8890 n8         1 ALY      -0.858800
     11 C           12.0450    19.1670   -14.5790 c          1 ALY       0.925600
     12 O           11.9070    20.3090   -15.0120 o          1 ALY      -0.831800
     13 OXT         11.4070    18.2180   -15.0270 o          1 ALY      -0.831800
     14 HH31        11.9060    22.0900    -5.4470 hc         1 ALY       0.051700
     15 HH32        10.8920    23.0400    -6.4360 hc         1 ALY       0.051700
     16 HH33        10.1120    21.8840    -5.2770 hc         1 ALY       0.051700
     17 HZ          12.6570    21.9570    -7.8040 hn         1 ALY       0.303500
     18 HE3         13.3660    20.4200    -9.4000 h1         1 ALY       0.050700
     19 HE2         12.1750    19.2430    -8.8080 h1         1 ALY       0.050700
     20 HD3         10.3510    20.5490    -9.9760 hc         1 ALY       0.039700
     21 HD2         11.5590    21.6590   -10.6120 hc         1 ALY       0.039700
     22 HG3         11.4160    18.6480   -11.2140 hc         1 ALY       0.054200
     23 HG2         10.7980    19.9230   -12.2540 hc         1 ALY       0.054200
     24 HB3         13.1380    20.8460   -12.5060 hc         1 ALY       0.021200
     25 HB2         13.7470    19.5510   -11.4800 hc         1 ALY       0.021200
     26 HCA         12.9530    17.8560   -13.1000 h1         1 ALY       0.000700
     27 H           14.7240    18.1570   -14.5970 hn         1 ALY       0.304800
     28 H2          15.1760    18.6050   -13.1030 hn         1 ALY       0.304800
@<TRIPOS>BOND
     1     1     2 2   
     2     2     3 1   
     3     2     4 1   
     4     3    14 1   
     5     3    15 1   
     6     3    16 1   
     7     4     5 1   
     8     4    17 1   
     9     5     6 1   
    10     5    18 1   
    11     5    19 1   
    12     6     7 1   
    13     6    20 1   
    14     6    21 1   
    15     7     8 1   
    16     7    22 1   
    17     7    23 1   
    18     8     9 1   
    19     8    24 1   
    20     8    25 1   
    21     9    10 1   
    22     9    11 1   
    23     9    26 1   
    24    10    27 1   
    25    10    28 1   
    26    11    12 1   
    27    11    13 1   
@<TRIPOS>SUBSTRUCTURE
     1 ALY         1 TEMP              0 ****  ****    0 ROOT
