@<TRIPOS>MOLECULE
ALZ
   50    51     1     0     0
SMALL
abcg2


@<TRIPOS>ATOM
      1 C14         -1.5590    -0.0090    -0.7210 c          1 ALZ       0.652100
      2 O14         -1.0410    -0.8240    -1.4630 o          1 ALZ      -0.548000
      3 O15         -2.8030    -0.1150    -0.2480 os         1 ALZ      -0.451100
      4 C16         -3.5740    -1.2390    -0.6900 c3         1 ALZ       0.229900
      5 C17         -4.9500    -1.0750    -0.1200 ca         1 ALZ      -0.099300
      6 C18         -5.8540    -0.1970    -0.7120 ca         1 ALZ      -0.085000
      7 C19         -7.1230    -0.0260    -0.1770 ca         1 ALZ      -0.116500
      8 C20         -7.5000    -0.7340     0.9580 ca         1 ALZ      -0.099000
      9 C21         -6.6050    -1.6110     1.5540 ca         1 ALZ      -0.116500
     10 C22         -5.3350    -1.7780     1.0160 ca         1 ALZ      -0.085000
     11 N8          -0.9480     1.1030    -0.2860 n          1 ALZ      -0.397800
     12 C9           0.4300     1.3550    -0.6440 c5         1 ALZ       0.040700
     13 C8           1.3430     0.2240    -0.1860 c          1 ALZ       0.621100
     14 O8           1.1450    -0.3850     0.8470 o          1 ALZ      -0.552100
     15 C10          0.7630     2.6540     0.1090 c5         1 ALZ      -0.087400
     16 C11         -0.5960     3.3210     0.2960 c5         1 ALZ      -0.096400
     17 C12         -1.5300     2.1460     0.5490 c5         1 ALZ       0.121000
     18 N1           9.4940    -0.6910     0.7030 n8         1 ALZ      -0.995200
     19 C2           8.2130    -1.3710     0.5730 c3         1 ALZ       0.148800
     20 C3           7.1290    -0.4080     0.1140 c3         1 ALZ      -0.078400
     21 C4           5.7800    -1.0910    -0.0660 c3         1 ALZ      -0.078400
     22 C5           4.6890    -0.1130    -0.4680 c3         1 ALZ       0.135800
     23 N6           3.4280    -0.8160    -0.6570 n7         1 ALZ      -0.585400
     24 N7           2.3970     0.0340    -1.0010 ns         1 ALZ      -0.396300
     25 H161        -3.6060    -1.2650    -1.7810 h1         1 ALZ       0.057200
     26 H162        -3.1170    -2.1670    -0.3420 h1         1 ALZ       0.057200
     27 H18         -5.5690     0.3510    -1.6030 ha         1 ALZ       0.115500
     28 H19         -7.8180     0.6580    -0.6470 ha         1 ALZ       0.114000
     29 H20         -8.4920    -0.6050     1.3720 ha         1 ALZ       0.112000
     30 H21         -6.8940    -2.1670     2.4360 ha         1 ALZ       0.114000
     31 H22         -4.6400    -2.4660     1.4840 ha         1 ALZ       0.115500
     32 H9           0.5230     1.5100    -1.7250 h1         1 ALZ       0.062700
     33 H101         1.2030     2.4270     1.0830 hc         1 ALZ       0.061200
     34 H102         1.4730     3.2660    -0.4440 hc         1 ALZ       0.061200
     35 H111        -0.6040     4.0390     1.1150 hc         1 ALZ       0.055700
     36 H112        -0.8920     3.8430    -0.6150 hc         1 ALZ       0.055700
     37 H121        -2.5580     2.3590     0.2600 h1         1 ALZ       0.059700
     38 H122        -1.5250     1.8530     1.6030 h1         1 ALZ       0.059700
     39 HN11         9.4280    -0.0020     1.4420 hn         1 ALZ       0.391500
     40 HN12        10.1940    -1.3520     1.0140 hn         1 ALZ       0.391500
     41 H21A         8.3210    -2.1670    -0.1700 h1         1 ALZ       0.028700
     42 H22A         7.8810    -1.8610     1.5010 h1         1 ALZ       0.028700
     43 H31          7.0320     0.4010     0.8480 hc         1 ALZ       0.045200
     44 H32          7.4400     0.0590    -0.8250 hc         1 ALZ       0.045200
     45 H41          5.8710    -1.8750    -0.8260 hc         1 ALZ       0.050200
     46 H42          5.4860    -1.5890     0.8630 hc         1 ALZ       0.050200
     47 H51          4.5480     0.6270     0.3230 h1         1 ALZ       0.035200
     48 H52          4.9980     0.4350    -1.3700 h1         1 ALZ       0.035200
     49 HN6          3.5240    -1.5140    -1.3860 hn         1 ALZ       0.418000
     50 HN7          2.4880     0.6030    -1.8330 hn         1 ALZ       0.297500
@<TRIPOS>BOND
     1     1     2 2   
     2     1     3 1   
     3     1    11 1   
     4     3     4 1   
     5     4     5 1   
     6     4    25 1   
     7     4    26 1   
     8     5     6 ar  
     9     5    10 ar  
    10     6     7 ar  
    11     6    27 1   
    12     7     8 ar  
    13     7    28 1   
    14     8     9 ar  
    15     8    29 1   
    16     9    10 ar  
    17     9    30 1   
    18    10    31 1   
    19    11    12 1   
    20    11    17 1   
    21    12    13 1   
    22    12    15 1   
    23    12    32 1   
    24    13    14 2   
    25    13    24 1   
    26    15    16 1   
    27    15    33 1   
    28    15    34 1   
    29    16    17 1   
    30    16    35 1   
    31    16    36 1   
    32    17    37 1   
    33    17    38 1   
    34    18    19 1   
    35    18    39 1   
    36    18    40 1   
    37    19    20 1   
    38    19    41 1   
    39    19    42 1   
    40    20    21 1   
    41    20    43 1   
    42    20    44 1   
    43    21    22 1   
    44    21    45 1   
    45    21    46 1   
    46    22    23 1   
    47    22    47 1   
    48    22    48 1   
    49    23    24 1   
    50    23    49 1   
    51    24    50 1   
@<TRIPOS>SUBSTRUCTURE
     1 ALZ         1 TEMP              0 ****  ****    0 ROOT
