@<TRIPOS>MOLECULE
ALZ
   50    51     1     0     0
SMALL
No Charge or Current Charge


@<TRIPOS>ATOM
      1 C14         -1.7230    -0.1330    -0.7590 c          1 ALZ       0.652100
      2 O14         -1.2260    -1.0010    -1.4630 o          1 ALZ      -0.548000
      3 O15         -3.0150    -0.1410    -0.3150 os         1 ALZ      -0.451100
      4 C16         -3.8400    -1.2580    -0.6790 c3         1 ALZ       0.229900
      5 C17         -5.2220    -1.0470    -0.0770 ca         1 ALZ      -0.099300
      6 C18         -6.2120    -0.3480    -0.7960 ca         1 ALZ      -0.085000
      7 C19         -7.4880    -0.1530    -0.2390 ca         1 ALZ      -0.116500
      8 C20         -7.7820    -0.6550     1.0400 ca         1 ALZ      -0.099000
      9 C21         -6.7990    -1.3510     1.7630 ca         1 ALZ      -0.116500
     10 C22         -5.5220    -1.5460     1.2070 ca         1 ALZ      -0.085000
     11 N8          -1.0360     1.0220    -0.3520 n          1 ALZ      -0.397800
     12 C9           0.4030     1.2590    -0.6610 c5         1 ALZ       0.040700
     13 C8           1.3880     0.1220    -0.2250 c          1 ALZ       0.621100
     14 O8           1.1920    -0.7540     0.6120 o          1 ALZ      -0.552100
     15 C10          0.6960     2.5230     0.2060 c5         1 ALZ      -0.087400
     16 C11         -0.6590     3.2720     0.1680 c5         1 ALZ      -0.096400
     17 C12         -1.6640     2.1200     0.4130 c5         1 ALZ       0.121000
     18 N1           9.7990    -0.7990     0.8540 n8         1 ALZ      -0.995200
     19 C2           8.5230    -1.4330     0.4750 c3         1 ALZ       0.148800
     20 C3           7.4230    -0.3820     0.2210 c3         1 ALZ      -0.078400
     21 C4           6.0710    -1.0130    -0.1830 c3         1 ALZ      -0.078400
     22 C5           4.9700     0.0360    -0.4370 c3         1 ALZ       0.135800
     23 N6           3.7060    -0.6260    -0.8040 n7         1 ALZ      -0.585400
     24 N7           2.5780     0.2470    -0.9490 ns         1 ALZ      -0.396300
     25 H161        -3.9240    -1.3400    -1.7710 h1         1 ALZ       0.057200
     26 H162        -3.4130    -2.1970    -0.3020 h1         1 ALZ       0.057200
     27 H18         -5.9910     0.0470    -1.7850 ha         1 ALZ       0.115500
     28 H19         -8.2480     0.3880    -0.7980 ha         1 ALZ       0.114000
     29 H20         -8.7700    -0.5030     1.4710 ha         1 ALZ       0.112000
     30 H21         -7.0250    -1.7380     2.7540 ha         1 ALZ       0.114000
     31 H22         -4.7650    -2.0840     1.7740 ha         1 ALZ       0.115500
     32 H9           0.5300     1.4640    -1.7320 h1         1 ALZ       0.062700
     33 H101         0.9570     2.2530     1.2370 hc         1 ALZ       0.061200
     34 H102         1.5230     3.1230    -0.1910 hc         1 ALZ       0.061200
     35 H111        -0.7320     4.0600     0.9260 hc         1 ALZ       0.055700
     36 H112        -0.8250     3.7390    -0.8100 hc         1 ALZ       0.055700
     37 H121        -2.6680     2.3730     0.0460 h1         1 ALZ       0.059700
     38 H122        -1.7340     1.8590     1.4780 h1         1 ALZ       0.059700
     39 HN11         9.6760    -0.3100     1.7490 hn         1 ALZ       0.391500
     40 HN12        10.4850    -1.5320     1.0740 hn         1 ALZ       0.391500
     41 H21A         8.6830    -2.0290    -0.4340 h1         1 ALZ       0.028700
     42 H22A         8.2110    -2.1090     1.2840 h1         1 ALZ       0.028700
     43 H31          7.2810     0.2210     1.1260 hc         1 ALZ       0.045200
     44 H32          7.7520     0.3000    -0.5730 hc         1 ALZ       0.045200
     45 H41          6.2130    -1.6170    -1.0880 hc         1 ALZ       0.050200
     46 H42          5.7420    -1.6950     0.6120 hc         1 ALZ       0.050200
     47 H51          4.8320     0.6370     0.4730 h1         1 ALZ       0.035200
     48 H52          5.2940     0.7120    -1.2400 h1         1 ALZ       0.035200
     49 HN6          3.8430    -1.2410    -1.6230 hn         1 ALZ       0.418000
     50 HN7          2.6010     1.0120    -1.6220 hn         1 ALZ       0.297500
@<TRIPOS>BOND
     1     1     2 2   
     2     1     3 1   
     3     1    11 1   
     4     3     4 1   
     5     4     5 1   
     6     4    25 1   
     7     4    26 1   
     8     5     6 ar  
     9     5    10 ar  
    10     6     7 ar  
    11     6    27 1   
    12     7     8 ar  
    13     7    28 1   
    14     8     9 ar  
    15     8    29 1   
    16     9    10 ar  
    17     9    30 1   
    18    10    31 1   
    19    11    12 1   
    20    11    17 1   
    21    12    13 1   
    22    12    15 1   
    23    12    32 1   
    24    13    14 2   
    25    13    24 1   
    26    15    16 1   
    27    15    33 1   
    28    15    34 1   
    29    16    17 1   
    30    16    35 1   
    31    16    36 1   
    32    17    37 1   
    33    17    38 1   
    34    18    19 1   
    35    18    39 1   
    36    18    40 1   
    37    19    20 1   
    38    19    41 1   
    39    19    42 1   
    40    20    21 1   
    41    20    43 1   
    42    20    44 1   
    43    21    22 1   
    44    21    45 1   
    45    21    46 1   
    46    22    23 1   
    47    22    47 1   
    48    22    48 1   
    49    23    24 1   
    50    23    49 1   
    51    24    50 1   
@<TRIPOS>SUBSTRUCTURE
     1 ALZ         1 TEMP              0 ****  ****    0 ROOT
