@<TRIPOS>MOLECULE
AM0
   58    62     1     0     0
SMALL
No Charge or Current Charge


@<TRIPOS>ATOM
      1 N3           0.7680    -1.3180    -0.9720 nb         1 AM0      -0.282000
      2 C7          -0.3120    -1.9130    -1.5040 ca         1 AM0       0.212900
      3 N4          -1.5520    -1.8780    -0.9790 nb         1 AM0      -0.273000
      4 C8          -1.7130    -1.1840     0.1750 ca         1 AM0       0.325500
      5 N5          -0.6690    -0.5570     0.7680 nb         1 AM0      -0.365000
      6 C10          0.5250    -0.6670     0.1720 ca         1 AM0       0.445900
      7 N2           1.5460     0.0210     0.7990 nu         1 AM0      -0.911900
      8 C11          3.6710    -0.9110     0.0490 ca         1 AM0      -0.262500
      9 C13          2.9180     0.1300     0.5990 ca         1 AM0       0.369000
     10 C14          3.5490     1.3040     1.0060 ca         1 AM0      -0.262500
     11 C15          4.9380     1.4620     0.8370 ca         1 AM0       0.183100
     12 C16          5.7140     0.4270     0.2630 ca         1 AM0       0.008100
     13 C17          5.0650    -0.7820    -0.1340 ca         1 AM0       0.183100
     14 O1           7.0820     0.6770     0.1330 os         1 AM0      -0.323100
     15 O2           5.7920    -1.8250    -0.6860 os         1 AM0      -0.320600
     16 C9           8.0400    -0.2350    -0.4330 c3         1 AM0       0.146900
     17 C1          -6.0610    -3.8300     0.7010 ca         1 AM0      -0.110000
     18 C2          -6.2120    -2.4720     0.3450 ca         1 AM0      -0.078000
     19 C3          -5.0880    -1.6340     0.3990 ca         1 AM0       0.115400
     20 C4          -3.8730    -2.1270     0.7910 ca         1 AM0      -0.066200
     21 C5          -3.6830    -3.4680     1.1560 ca         1 AM0      -0.071000
     22 C6          -4.8000    -4.3270     1.1050 ca         1 AM0      -0.121000
     23 N6          -5.0200    -0.2880     0.0830 nc         1 AM0      -0.639100
     24 C12         -3.7260    -0.0220     0.2930 cd         1 AM0       0.704700
     25 N7          -2.9650    -1.1010     0.7710 na         1 AM0      -0.231100
     26 O3           5.5830     2.6270     1.2230 os         1 AM0      -0.320600
     27 C18          5.1960    -3.0600    -1.1210 c3         1 AM0       0.144400
     28 C19          4.8910     3.7400     1.8150 c3         1 AM0       0.144400
     29 C20         -3.1700     4.6760    -1.2390 ca         1 AM0      -0.081500
     30 C21         -4.5360     4.9970    -1.2440 ca         1 AM0      -0.140000
     31 C22         -5.4780     4.0530    -0.8070 ca         1 AM0      -0.081500
     32 C23         -5.0540     2.7850    -0.3700 ca         1 AM0      -0.154000
     33 C24         -3.6850     2.4470    -0.3710 ca         1 AM0       0.322000
     34 C25         -2.7510     3.4070    -0.8000 ca         1 AM0      -0.154000
     35 H7          -0.1750    -2.4640    -2.4340 h5         1 AM0       0.058100
     36 HN2          1.1920     0.6410     1.5230 hn         1 AM0       0.511000
     37 H11          3.1640    -1.8290    -0.2160 ha         1 AM0       0.139000
     38 H14          2.9450     2.0920     1.4410 ha         1 AM0       0.139000
     39 H9           9.0400     0.2160    -0.4210 h1         1 AM0       0.034033
     40 H9A          8.0870    -1.1650     0.1470 h1         1 AM0       0.034033
     41 H9B          7.7910    -0.4690    -1.4760 h1         1 AM0       0.034033
     42 H1          -6.9200    -4.4970     0.6650 ha         1 AM0       0.115000
     43 H2          -7.1760    -2.0820     0.0310 ha         1 AM0       0.130000
     44 H5          -2.7070    -3.8330     1.4690 ha         1 AM0       0.142000
     45 H6          -4.6910    -5.3740     1.3800 ha         1 AM0       0.114000
     46 HN1         -2.1930     1.2000     0.2230 hn         1 AM0       0.538000
     47 H18          4.7130    -3.5780    -0.2820 h1         1 AM0       0.044033
     48 H18A         4.4480    -2.8790    -1.9040 h1         1 AM0       0.044033
     49 H18B         5.9630    -3.7270    -1.5320 h1         1 AM0       0.044033
     50 H19          5.5970     4.5490     2.0400 h1         1 AM0       0.044033
     51 H19A         4.1290     4.1350     1.1310 h1         1 AM0       0.044033
     52 H19B         4.4050     3.4440     2.7530 h1         1 AM0       0.044033
     53 H21         -4.8640     5.9790    -1.5820 ha         1 AM0       0.115000
     54 H22         -6.5370     4.3040    -0.8020 ha         1 AM0       0.111500
     55 H23         -5.8020     2.0850    -0.0190 ha         1 AM0       0.128500
     56 H25         -1.6900     3.1710    -0.8030 ha         1 AM0       0.128500
     57 N1          -3.1950     1.2120     0.0590 nu         1 AM0      -0.905200
     58 H20         -2.4370     5.4070    -1.5730 ha         1 AM0       0.111500
@<TRIPOS>BOND
     1     1     2 ar  
     2     1     6 ar  
     3     2     3 ar  
     4     2    35 1   
     5     3     4 ar  
     6     4     5 ar  
     7     4    25 1   
     8     5     6 ar  
     9     6     7 1   
    10     7     9 1   
    11     7    36 1   
    12     8     9 ar  
    13     8    13 ar  
    14     8    37 1   
    15     9    10 ar  
    16    10    11 ar  
    17    10    38 1   
    18    11    12 ar  
    19    11    26 1   
    20    12    13 ar  
    21    12    14 1   
    22    13    15 1   
    23    14    16 1   
    24    15    27 1   
    25    16    39 1   
    26    16    40 1   
    27    16    41 1   
    28    17    18 ar  
    29    17    22 ar  
    30    17    42 1   
    31    18    19 ar  
    32    18    43 1   
    33    19    20 ar  
    34    19    23 1   
    35    20    21 ar  
    36    20    25 1   
    37    21    22 ar  
    38    21    44 1   
    39    22    45 1   
    40    23    24 2   
    41    24    25 1   
    42    24    57 1   
    43    26    28 1   
    44    27    47 1   
    45    27    48 1   
    46    27    49 1   
    47    28    50 1   
    48    28    51 1   
    49    28    52 1   
    50    29    30 ar  
    51    29    34 ar  
    52    29    58 1   
    53    30    31 ar  
    54    30    53 1   
    55    31    32 ar  
    56    31    54 1   
    57    32    33 ar  
    58    32    55 1   
    59    33    34 ar  
    60    33    57 1   
    61    34    56 1   
    62    46    57 1   
@<TRIPOS>SUBSTRUCTURE
     1 AM0         1 TEMP              0 ****  ****    0 ROOT
