@<TRIPOS>MOLECULE
AM0
   58    62     1     0     0
SMALL
bcc


@<TRIPOS>ATOM
      1 N3           0.9880    -2.1820    -0.1900 nb         1 AM0      -0.808000
      2 C7           0.0450    -3.1020    -0.1770 ca         1 AM0       0.738900
      3 N4          -1.2570    -2.8960    -0.0820 nb         1 AM0      -0.799000
      4 C8          -1.6000    -1.6170     0.0080 ca         1 AM0       0.851500
      5 N5          -0.7540    -0.6070     0.0110 nb         1 AM0      -0.891000
      6 C10          0.5420    -0.9290    -0.0880 ca         1 AM0       0.971900
      7 N2           1.3910     0.1100    -0.0730 nu         1 AM0      -0.718300
      8 C11          3.5880    -0.9100    -0.5140 ca         1 AM0      -0.280500
      9 C13          2.7890     0.1660    -0.1430 ca         1 AM0       0.230600
     10 C14          3.3540     1.4040     0.1590 ca         1 AM0      -0.280500
     11 C15          4.7340     1.5680     0.0930 ca         1 AM0       0.183100
     12 C16          5.5520     0.4990    -0.2820 ca         1 AM0       0.008100
     13 C17          4.9700    -0.7350    -0.5720 ca         1 AM0       0.183100
     14 O1           6.8970     0.6670    -0.3790 os         1 AM0      -0.299900
     15 O2           5.8270    -1.7110    -0.9140 os         1 AM0      -0.297400
     16 C9           7.6090     0.3960     0.8210 c3         1 AM0       0.123700
     17 C1          -6.4530    -3.5060     0.3820 ca         1 AM0      -0.128000
     18 C2          -6.4030    -2.1200     0.3430 ca         1 AM0      -0.096000
     19 C3          -5.1580    -1.5130     0.2460 ca         1 AM0       0.115400
     20 C4          -3.9900    -2.2820     0.1870 ca         1 AM0      -0.066200
     21 C5          -4.0310    -3.6670     0.2280 ca         1 AM0      -0.089000
     22 C6          -5.2840    -4.2630     0.3260 ca         1 AM0      -0.139000
     23 N6          -4.8700    -0.1690     0.2030 nc         1 AM0      -0.639100
     24 C12         -3.5800    -0.0780     0.1220 cd         1 AM0       0.704700
     25 N7          -2.9490    -1.3390     0.1040 na         1 AM0      -0.231100
     26 O3           5.3690     2.7180     0.3680 os         1 AM0      -0.297400
     27 C18          5.3110    -2.9880    -1.2340 c3         1 AM0       0.121200
     28 C19          4.6020     3.8360     0.7710 c3         1 AM0       0.121200
     29 C20         -2.6600     4.7010    -0.0740 ca         1 AM0      -0.099500
     30 C21         -3.9940     5.0890    -0.0400 ca         1 AM0      -0.158000
     31 C22         -4.9740     4.1110     0.0300 ca         1 AM0      -0.099500
     32 C23         -4.6480     2.7610     0.0650 ca         1 AM0      -0.172000
     33 C24         -3.3070     2.3740     0.0290 ca         1 AM0       0.183600
     34 C25         -2.3180     3.3610    -0.0400 ca         1 AM0      -0.172000
     35 H7           0.3690    -4.1330    -0.2540 h5         1 AM0       0.058100
     36 HN2          0.9360     1.0020     0.0560 hn         1 AM0       0.455800
     37 H11          3.1380    -1.8600    -0.7450 ha         1 AM0       0.157000
     38 H14          2.7110     2.2260     0.4460 ha         1 AM0       0.157000
     39 H9           8.6640     0.5770     0.6180 h1         1 AM0       0.034033
     40 H9A          7.2940     1.0500     1.6370 h1         1 AM0       0.034033
     41 H9B          7.4880    -0.6430     1.1390 h1         1 AM0       0.034033
     42 H1          -7.4100    -4.0050     0.4580 ha         1 AM0       0.133000
     43 H2          -7.3020    -1.5200     0.3880 ha         1 AM0       0.148000
     44 H5          -3.1390    -4.2690     0.1840 ha         1 AM0       0.160000
     45 H6          -5.3460    -5.3430     0.3580 ha         1 AM0       0.132000
     46 HN1         -1.8540     0.9100     0.0250 hn         1 AM0       0.482800
     47 H18          4.7590    -3.4280    -0.4000 h1         1 AM0       0.044033
     48 H18A         4.6600    -2.9580    -2.1120 h1         1 AM0       0.044033
     49 H18B         6.1690    -3.6170    -1.4580 h1         1 AM0       0.044033
     50 H19          5.3090     4.6380     0.9650 h1         1 AM0       0.044033
     51 H19A         3.9090     4.1590    -0.0090 h1         1 AM0       0.044033
     52 H19B         4.0380     3.6340     1.6850 h1         1 AM0       0.044033
     53 H21         -4.2610     6.1370    -0.0660 ha         1 AM0       0.133000
     54 H22         -6.0190     4.3930     0.0580 ha         1 AM0       0.129500
     55 H23         -5.4280     2.0190     0.1190 ha         1 AM0       0.146500
     56 H25         -1.2720     3.0760    -0.0680 ha         1 AM0       0.146500
     57 N1          -2.8590     1.0550     0.0540 nu         1 AM0      -0.711600
     58 H20         -1.8760     5.4450    -0.1280 ha         1 AM0       0.129500
@<TRIPOS>BOND
     1     1     2 ar  
     2     1     6 ar  
     3     2     3 ar  
     4     2    35 1   
     5     3     4 ar  
     6     4     5 ar  
     7     4    25 1   
     8     5     6 ar  
     9     6     7 1   
    10     7     9 1   
    11     7    36 1   
    12     8     9 ar  
    13     8    13 ar  
    14     8    37 1   
    15     9    10 ar  
    16    10    11 ar  
    17    10    38 1   
    18    11    12 ar  
    19    11    26 1   
    20    12    13 ar  
    21    12    14 1   
    22    13    15 1   
    23    14    16 1   
    24    15    27 1   
    25    16    39 1   
    26    16    40 1   
    27    16    41 1   
    28    17    18 ar  
    29    17    22 ar  
    30    17    42 1   
    31    18    19 ar  
    32    18    43 1   
    33    19    20 ar  
    34    19    23 1   
    35    20    21 ar  
    36    20    25 1   
    37    21    22 ar  
    38    21    44 1   
    39    22    45 1   
    40    23    24 2   
    41    24    25 1   
    42    24    57 1   
    43    26    28 1   
    44    27    47 1   
    45    27    48 1   
    46    27    49 1   
    47    28    50 1   
    48    28    51 1   
    49    28    52 1   
    50    29    30 ar  
    51    29    34 ar  
    52    29    58 1   
    53    30    31 ar  
    54    30    53 1   
    55    31    32 ar  
    56    31    54 1   
    57    32    33 ar  
    58    32    55 1   
    59    33    34 ar  
    60    33    57 1   
    61    34    56 1   
    62    46    57 1   
@<TRIPOS>SUBSTRUCTURE
     1 AM0         1 TEMP              0 ****  ****    0 ROOT
