@<TRIPOS>MOLECULE
AM1
   23    23     1     0     0
SMALL
No Charge or Current Charge


@<TRIPOS>ATOM
      1 O1           2.7280    -2.2980     0.3800 o          1 AM1      -0.700000
      2 C1           1.7190    -1.6880     0.0410 c          1 AM1       0.620500
      3 O2           0.6980    -2.2930    -0.2590 o          1 AM1      -0.700000
      4 C2           1.7680    -0.1660    -0.0140 cc         1 AM1       0.214500
      5 N1           2.8700     0.5340     0.2740 nd         1 AM1      -0.383300
      6 O3           2.4970     1.8990     0.0820 os         1 AM1      -0.143700
      7 C3           1.1900     1.9360    -0.3100 cd         1 AM1       0.072300
      8 C4           0.6700     0.6800    -0.3800 cc         1 AM1      -0.129300
      9 C5          -0.7400     0.2810    -0.7730 c3         1 AM1      -0.020100
     10 C6          -1.6570    -0.0910     0.4260 c3         1 AM1       0.028500
     11 N2          -1.7490     1.0650     1.3980 n8         1 AM1      -0.993200
     12 C7          -3.0330    -0.6880    -0.0850 c          1 AM1       0.722000
     13 O4          -3.7270    -0.0110    -0.8350 o          1 AM1      -0.748500
     14 O5          -3.3860    -1.7830     0.3340 o          1 AM1      -0.748500
     15 C8           0.5580     3.2730    -0.5950 c3         1 AM1      -0.107400
     16 H2          -1.2060     1.1030    -1.3300 hc         1 AM1       0.050200
     17 H3          -0.7090    -0.5550    -1.4810 hc         1 AM1       0.050200
     18 H4          -1.1650    -0.9170     0.9580 h1         1 AM1       0.083700
     19 H5          -0.8110     1.4600     1.5300 hn         1 AM1       0.367500
     20 H6          -2.2770     1.8260     0.9540 hn         1 AM1       0.367500
     21 H8           0.1800     3.3160    -1.6230 hc         1 AM1       0.032700
     22 H9          -0.2840     3.4620     0.0820 hc         1 AM1       0.032700
     23 H10          1.2780     4.0900    -0.4690 hc         1 AM1       0.032700
@<TRIPOS>BOND
     1     1     2 1   
     2     2     3 1   
     3     2     4 1   
     4     4     5 2   
     5     4     8 1   
     6     5     6 1   
     7     6     7 1   
     8     7     8 2   
     9     7    15 1   
    10     8     9 1   
    11     9    10 1   
    12     9    16 1   
    13     9    17 1   
    14    10    11 1   
    15    10    12 1   
    16    10    18 1   
    17    11    19 1   
    18    11    20 1   
    19    12    13 1   
    20    12    14 1   
    21    15    21 1   
    22    15    22 1   
    23    15    23 1   
@<TRIPOS>SUBSTRUCTURE
     1 AM1         1 TEMP              0 ****  ****    0 ROOT
