@<TRIPOS>MOLECULE
AM1
   23    23     1     0     0
SMALL
bcc


@<TRIPOS>ATOM
      1 O1           3.0030    -2.1290     0.4870 o          1 AM1      -0.805300
      2 C1           1.8840    -1.6950     0.1720 c          1 AM1       0.831100
      3 O2           0.8440    -2.3420    -0.0450 o          1 AM1      -0.805300
      4 C2           1.7600    -0.1870     0.0320 cc         1 AM1       0.279800
      5 N1           2.7810     0.5730     0.3170 nd         1 AM1      -0.383300
      6 O3           2.3840     1.8530     0.0960 os         1 AM1      -0.188100
      7 C3           1.1130     1.8660    -0.3270 cd         1 AM1       0.182000
      8 C4           0.6460     0.5920    -0.4050 cc         1 AM1      -0.259900
      9 C5          -0.7290     0.1750    -0.8020 c3         1 AM1      -0.020100
     10 C6          -1.6690    -0.0540     0.4060 c3         1 AM1       0.028500
     11 N2          -1.7550     1.0640     1.3260 n8         1 AM1      -0.882800
     12 C7          -3.0590    -0.4350    -0.1430 c          1 AM1       0.932600
     13 O4          -3.9630     0.4210    -0.0640 o          1 AM1      -0.853800
     14 O5          -3.1530    -1.5640    -0.6670 o          1 AM1      -0.853800
     15 C8           0.4930     3.1830    -0.6070 c3         1 AM1      -0.107400
     16 H2          -1.1630     0.9560    -1.4360 hc         1 AM1       0.050200
     17 H3          -0.6890    -0.7380    -1.3920 hc         1 AM1       0.050200
     18 H4          -1.2620    -0.9100     0.9510 h1         1 AM1       0.083700
     19 H5          -0.8250     1.3710     1.5840 hn         1 AM1       0.312300
     20 H6          -2.2050     1.8440     0.8640 hn         1 AM1       0.312300
     21 H8          -0.2580     3.0900    -1.3900 hc         1 AM1       0.032700
     22 H9          -0.0020     3.5870     0.2780 hc         1 AM1       0.032700
     23 H10          1.2350     3.9130    -0.9300 hc         1 AM1       0.032700
@<TRIPOS>BOND
     1     1     2 1   
     2     2     3 1   
     3     2     4 1   
     4     4     5 2   
     5     4     8 1   
     6     5     6 1   
     7     6     7 1   
     8     7     8 2   
     9     7    15 1   
    10     8     9 1   
    11     9    10 1   
    12     9    16 1   
    13     9    17 1   
    14    10    11 1   
    15    10    12 1   
    16    10    18 1   
    17    11    19 1   
    18    11    20 1   
    19    12    13 1   
    20    12    14 1   
    21    15    21 1   
    22    15    22 1   
    23    15    23 1   
@<TRIPOS>SUBSTRUCTURE
     1 AM1         1 TEMP              0 ****  ****    0 ROOT
