@<TRIPOS>MOLECULE
AM3
   50    51     1     0     0
SMALL
abcg2


@<TRIPOS>ATOM
      1 O4          -3.4150     0.1360     2.4800 oh         1 AM3      -0.706000
      2 C4          -4.0020     0.8240     1.4080 c6         1 AM3       0.189300
      3 C5          -2.9210     1.2980     0.4600 c5         1 AM3       0.181500
      4 C6          -1.7180     2.0250     1.0410 c5         1 AM3       0.160600
      5 O6          -0.6530     1.6660     0.1470 os         1 AM3      -0.458600
      6 C3          -4.9470    -0.0650     0.5950 c6         1 AM3       0.139300
      7 O3          -5.9490    -0.5250     1.4660 oh         1 AM3      -0.729000
      8 C2          -4.1990    -1.2310    -0.0520 c6         1 AM3       0.127300
      9 O2          -5.1410    -1.9610    -0.8020 oh         1 AM3      -0.730000
     10 C1          -3.0440    -0.7560    -0.9350 c6         1 AM3       0.454500
     11 O1          -2.2970    -1.8650    -1.3110 oh         1 AM3      -0.730000
     12 N1          -2.2490     0.1700    -0.1510 nh         1 AM3      -0.789600
     13 C7          -1.0000     0.5640    -0.5380 c2         1 AM3       0.813500
     14 N2          -0.2960    -0.0290    -1.4100 n2         1 AM3      -0.739900
     15 C8           1.0530     0.4210    -1.6790 c3         1 AM3       0.153800
     16 C9           2.0720    -0.1700    -0.7090 c3         1 AM3      -0.090400
     17 C10          3.5020     0.2360    -1.0420 c3         1 AM3      -0.073400
     18 C11          4.5210    -0.3130    -0.0510 c3         1 AM3      -0.074400
     19 C12          5.9540     0.0920    -0.3710 c3         1 AM3      -0.074400
     20 C13          6.9660    -0.4390     0.6370 c3         1 AM3      -0.075400
     21 C14          8.4020    -0.0350     0.3250 c3         1 AM3      -0.074400
     22 C15          9.4020    -0.5750     1.3390 c3         1 AM3      -0.088100
     23 H4          -4.1210    -0.1980     3.0440 ho         1 AM3       0.526000
     24 HA          -4.5660     1.7020     1.7540 h1         1 AM3       0.052700
     25 H5          -3.4060     1.9280    -0.3020 h1         1 AM3       0.051700
     26 H3          -5.3790     0.5590    -0.2040 h1         1 AM3       0.046700
     27 H61C        -1.8270     3.1070     1.0370 h1         1 AM3       0.077700
     28 H62C        -1.4730     1.6860     2.0480 h1         1 AM3       0.077700
     29 HB          -6.4920    -1.1670     0.9950 ho         1 AM3       0.532000
     30 H2          -3.7620    -1.8460     0.7450 h1         1 AM3       0.076700
     31 HC          -4.7980    -2.8470    -0.9520 ho         1 AM3       0.528000
     32 H81C         1.3090     0.1050    -2.6930 h1         1 AM3       0.043700
     33 H82C         1.1410     1.5140    -1.6690 h1         1 AM3       0.043700
     34 H91C         1.8310     0.1520     0.3090 hc         1 AM3       0.047700
     35 H92C         1.9840    -1.2610    -0.7190 hc         1 AM3       0.047700
     36 H101         3.7540    -0.1070    -2.0510 hc         1 AM3       0.036700
     37 H102         3.5750     1.3290    -1.0660 hc         1 AM3       0.036700
     38 H111         4.2640     0.0320     0.9570 hc         1 AM3       0.038200
     39 H112         4.4490    -1.4060    -0.0250 hc         1 AM3       0.038200
     40 H121         6.2180    -0.2640    -1.3730 hc         1 AM3       0.036200
     41 H122         6.0220     1.1850    -0.4100 hc         1 AM3       0.036200
     42 H131         6.7000    -0.0840     1.6390 hc         1 AM3       0.037200
     43 H132         6.8980    -1.5320     0.6770 hc         1 AM3       0.037200
     44 H141         8.6680    -0.3890    -0.6750 hc         1 AM3       0.036200
     45 H142         8.4700     1.0570     0.2880 hc         1 AM3       0.036200
     46 H151         9.1760    -0.2160     2.3450 hc         1 AM3       0.031367
     47 H152         9.3820    -1.6660     1.3680 hc         1 AM3       0.031367
     48 H153        10.4210    -0.2690     1.1000 hc         1 AM3       0.031367
     49 H154        -1.4540    -1.5180    -1.6700 ho         1 AM3       0.568000
     50 H155        -3.4480    -0.2250    -1.8170 h2         1 AM3       0.032700
@<TRIPOS>BOND
     1     1     2 1   
     2     1    23 1   
     3     2     3 1   
     4     2     6 1   
     5     2    24 1   
     6     3     4 1   
     7     3    12 1   
     8     3    25 1   
     9     4     5 1   
    10     4    27 1   
    11     4    28 1   
    12     5    13 1   
    13     6     7 1   
    14     6     8 1   
    15     6    26 1   
    16     7    29 1   
    17     8     9 1   
    18     8    10 1   
    19     8    30 1   
    20     9    31 1   
    21    10    11 1   
    22    10    12 1   
    23    10    50 1   
    24    11    49 1   
    25    12    13 1   
    26    13    14 2   
    27    14    15 1   
    28    15    16 1   
    29    15    32 1   
    30    15    33 1   
    31    16    17 1   
    32    16    34 1   
    33    16    35 1   
    34    17    18 1   
    35    17    36 1   
    36    17    37 1   
    37    18    19 1   
    38    18    38 1   
    39    18    39 1   
    40    19    20 1   
    41    19    40 1   
    42    19    41 1   
    43    20    21 1   
    44    20    42 1   
    45    20    43 1   
    46    21    22 1   
    47    21    44 1   
    48    21    45 1   
    49    22    46 1   
    50    22    47 1   
    51    22    48 1   
@<TRIPOS>SUBSTRUCTURE
     1 AM3         1 TEMP              0 ****  ****    0 ROOT
