@<TRIPOS>MOLECULE
AM3
   50    51     1     0     0
SMALL
No Charge or Current Charge


@<TRIPOS>ATOM
      1 O4          -4.0940     0.7120     2.4330 oh         1 AM3      -0.706000
      2 C4          -4.4770     1.0180     1.0780 c6         1 AM3       0.189300
      3 C5          -3.2700     1.4350     0.1770 c5         1 AM3       0.181500
      4 C6          -2.1900     2.3810     0.7720 c5         1 AM3       0.160600
      5 O6          -1.0220     2.1410    -0.0610 os         1 AM3      -0.458600
      6 C3          -5.1630    -0.2370     0.4370 c6         1 AM3       0.139300
      7 O3          -6.2210    -0.7240     1.2880 oh         1 AM3      -0.729000
      8 C2          -4.1350    -1.3920     0.1850 c6         1 AM3       0.127300
      9 O2          -4.8150    -2.5660    -0.3330 oh         1 AM3      -0.730000
     10 C1          -2.9550    -0.9160    -0.7450 c6         1 AM3       0.454500
     11 O1          -1.9150    -1.8620    -0.7420 oh         1 AM3      -0.730000
     12 N1          -2.3950     0.3250    -0.2270 nh         1 AM3      -0.789600
     13 C7          -1.1720     0.8620    -0.5010 c2         1 AM3       0.813500
     14 N2          -0.2390     0.1880    -1.0650 n2         1 AM3      -0.739900
     15 C8           1.0980     0.7370    -1.3380 c3         1 AM3       0.153800
     16 C9           2.1590    -0.0750    -0.5690 c3         1 AM3      -0.090400
     17 C10          3.5980     0.4320    -0.8130 c3         1 AM3      -0.073400
     18 C11          4.6630    -0.3780    -0.0430 c3         1 AM3      -0.074400
     19 C12          6.1010     0.1290    -0.2870 c3         1 AM3      -0.074400
     20 C13          7.1670    -0.6810     0.4830 c3         1 AM3      -0.075400
     21 C14          8.6050    -0.1740     0.2390 c3         1 AM3      -0.074400
     22 C15          9.6690    -0.9820     1.0070 c3         1 AM3      -0.088100
     23 H4          -4.8300     0.1380     2.7580 ho         1 AM3       0.526000
     24 HA          -5.2010     1.8460     1.0830 h1         1 AM3       0.052700
     25 H5          -3.6900     1.9080    -0.7230 h1         1 AM3       0.051700
     26 H3          -5.5790     0.0640    -0.5360 h1         1 AM3       0.046700
     27 H61C        -2.4760     3.4400     0.7430 h1         1 AM3       0.077700
     28 H62C        -1.9440     2.1060     1.8070 h1         1 AM3       0.077700
     29 HB          -6.3790    -1.6470     0.9660 ho         1 AM3       0.532000
     30 H2          -3.6800    -1.6390     1.1560 h1         1 AM3       0.076700
     31 HC          -4.0980    -3.1910    -0.6040 ho         1 AM3       0.528000
     32 H81C         1.3170     0.6810    -2.4120 h1         1 AM3       0.043700
     33 H82C         1.1820     1.7930    -1.0460 h1         1 AM3       0.043700
     34 H91C         1.9380    -0.0290     0.5050 hc         1 AM3       0.047700
     35 H92C         2.0930    -1.1280    -0.8680 hc         1 AM3       0.047700
     36 H101         3.8170     0.3880    -1.8870 hc         1 AM3       0.036700
     37 H102         3.6630     1.4870    -0.5160 hc         1 AM3       0.036700
     38 H111         4.4430    -0.3340     1.0310 hc         1 AM3       0.038200
     39 H112         4.5980    -1.4330    -0.3410 hc         1 AM3       0.038200
     40 H121         6.3220     0.0850    -1.3610 hc         1 AM3       0.036200
     41 H122         6.1660     1.1830     0.0100 hc         1 AM3       0.036200
     42 H131         6.9470    -0.6370     1.5570 hc         1 AM3       0.037200
     43 H132         7.1020    -1.7360     0.1850 hc         1 AM3       0.037200
     44 H141         8.8300    -0.2180    -0.8340 hc         1 AM3       0.036200
     45 H142         8.6750     0.8800     0.5370 hc         1 AM3       0.036200
     46 H151         9.4920    -0.9280     2.0880 hc         1 AM3       0.031367
     47 H152         9.6480    -2.0360     0.7040 hc         1 AM3       0.031367
     48 H153        10.6710    -0.5860     0.8030 hc         1 AM3       0.031367
     49 H154        -1.1330    -1.2590    -0.8850 ho         1 AM3       0.568000
     50 H155        -3.3150    -0.7410    -1.7700 h2         1 AM3       0.032700
@<TRIPOS>BOND
     1     1     2 1   
     2     1    23 1   
     3     2     3 1   
     4     2     6 1   
     5     2    24 1   
     6     3     4 1   
     7     3    12 1   
     8     3    25 1   
     9     4     5 1   
    10     4    27 1   
    11     4    28 1   
    12     5    13 1   
    13     6     7 1   
    14     6     8 1   
    15     6    26 1   
    16     7    29 1   
    17     8     9 1   
    18     8    10 1   
    19     8    30 1   
    20     9    31 1   
    21    10    11 1   
    22    10    12 1   
    23    10    50 1   
    24    11    49 1   
    25    12    13 1   
    26    13    14 2   
    27    14    15 1   
    28    15    16 1   
    29    15    32 1   
    30    15    33 1   
    31    16    17 1   
    32    16    34 1   
    33    16    35 1   
    34    17    18 1   
    35    17    36 1   
    36    17    37 1   
    37    18    19 1   
    38    18    38 1   
    39    18    39 1   
    40    19    20 1   
    41    19    40 1   
    42    19    41 1   
    43    20    21 1   
    44    20    42 1   
    45    20    43 1   
    46    21    22 1   
    47    21    44 1   
    48    21    45 1   
    49    22    46 1   
    50    22    47 1   
    51    22    48 1   
@<TRIPOS>SUBSTRUCTURE
     1 AM3         1 TEMP              0 ****  ****    0 ROOT
