@<TRIPOS>MOLECULE
AM4
   23    23     1     0     0
SMALL
No Charge or Current Charge


@<TRIPOS>ATOM
      1 C2           0.0480    -1.2560     0.0850 ca         1 AM4      -0.026000
      2 C3          -1.3560    -1.2140     0.1390 ca         1 AM4      -0.099000
      3 C4          -2.0520     0.0160     0.0360 ca         1 AM4      -0.089900
      4 C11         -3.5520     0.0780     0.1260 ce         1 AM4       0.652800
      5 N13         -4.1920     1.1410     0.3970 n2         1 AM4      -0.820100
      6 N12         -4.2630    -1.0300    -0.1870 nv         1 AM4      -1.077200
      7 C5          -1.2940     1.2040    -0.0850 ca         1 AM4      -0.099000
      8 C6           0.1100     1.1660    -0.1420 ca         1 AM4      -0.026000
      9 C1           0.7880    -0.0670    -0.0640 ca         1 AM4      -0.256500
     10 S7           2.5930    -0.1190    -0.1220 sy         1 AM4       1.055500
     11 C10          3.0600     0.0310     1.6010 c3         1 AM4      -0.335100
     12 O9           3.0830     1.0920    -0.7950 o          1 AM4      -0.522500
     13 O8           3.0170    -1.4560    -0.5560 o          1 AM4      -0.522500
     14 H2           0.5540    -2.2180     0.1650 ha         1 AM4       0.139500
     15 H3          -1.8970    -2.1470     0.2760 ha         1 AM4       0.134500
     16 H13         -5.1600     0.8820     0.6120 hn         1 AM4       0.376400
     17 H121        -3.7440    -1.7440    -0.6860 hn         1 AM4       0.465500
     18 H122        -5.2070    -0.8760    -0.5240 hn         1 AM4       0.465500
     19 H5          -1.7950     2.1670    -0.1450 ha         1 AM4       0.134500
     20 H6           0.6640     2.0980    -0.2430 ha         1 AM4       0.139500
     21 H101         2.6690     0.9810     1.9800 h1         1 AM4       0.103700
     22 H102         2.6230    -0.8120     2.1480 h1         1 AM4       0.103700
     23 H103         4.1530     0.0090     1.6620 h1         1 AM4       0.103700
@<TRIPOS>BOND
     1     1     2 ar  
     2     1     9 ar  
     3     1    14 1   
     4     2     3 ar  
     5     2    15 1   
     6     3     4 1   
     7     3     7 ar  
     8     4     5 2   
     9     4     6 1   
    10     5    16 1   
    11     6    17 1   
    12     6    18 1   
    13     7     8 ar  
    14     7    19 1   
    15     8     9 ar  
    16     8    20 1   
    17     9    10 1   
    18    10    11 1   
    19    10    12 2   
    20    10    13 2   
    21    11    21 1   
    22    11    22 1   
    23    11    23 1   
@<TRIPOS>SUBSTRUCTURE
     1 AM4         1 TEMP              0 ****  ****    0 ROOT
