@<TRIPOS>MOLECULE
AM4
   23    23     1     0     0
SMALL
bcc


@<TRIPOS>ATOM
      1 C2           0.0410    -1.2660     0.0900 ca         1 AM4      -0.044000
      2 C3          -1.3440    -1.2230     0.1370 ca         1 AM4      -0.117000
      3 C4          -2.0190    -0.0070     0.0570 ca         1 AM4      -0.089900
      4 C11         -3.5070     0.0660     0.1220 ce         1 AM4       0.652800
      5 N13         -4.0360     1.1370     0.5730 n2         1 AM4      -0.820100
      6 N12         -4.1620    -1.0650    -0.2650 nv         1 AM4      -0.966800
      7 C5          -1.2870     1.1720    -0.0690 ca         1 AM4      -0.117000
      8 C6           0.0950     1.1420    -0.1270 ca         1 AM4      -0.044000
      9 C1           0.7470    -0.0810    -0.0420 ca         1 AM4      -0.256500
     10 S7           2.5210    -0.1280    -0.0990 sy         1 AM4       1.086300
     11 C10          3.0020     0.0680     1.6010 c3         1 AM4      -0.224300
     12 O9           2.9850     1.0380    -0.8480 o          1 AM4      -0.593300
     13 O8           2.9320    -1.4580    -0.5440 o          1 AM4      -0.593300
     14 H2           0.5510    -2.2170     0.1600 ha         1 AM4       0.157500
     15 H3          -1.8890    -2.1500     0.2580 ha         1 AM4       0.152500
     16 H13         -5.0510     1.0860     0.5500 hn         1 AM4       0.376400
     17 H121        -3.7280    -1.6700    -0.9420 hn         1 AM4       0.410300
     18 H122        -5.1650    -1.0140    -0.3520 hn         1 AM4       0.410300
     19 H5          -1.8060     2.1180    -0.1340 ha         1 AM4       0.152500
     20 H6           0.6500     2.0630    -0.2430 ha         1 AM4       0.157500
     21 H101         2.6420     1.0250     1.9710 h1         1 AM4       0.103700
     22 H102         2.5870    -0.7480     2.1890 h1         1 AM4       0.103700
     23 H103         4.0910     0.0370     1.6360 h1         1 AM4       0.103700
@<TRIPOS>BOND
     1     1     2 ar  
     2     1     9 ar  
     3     1    14 1   
     4     2     3 ar  
     5     2    15 1   
     6     3     4 1   
     7     3     7 ar  
     8     4     5 2   
     9     4     6 1   
    10     5    16 1   
    11     6    17 1   
    12     6    18 1   
    13     7     8 ar  
    14     7    19 1   
    15     8     9 ar  
    16     8    20 1   
    17     9    10 1   
    18    10    11 1   
    19    10    12 2   
    20    10    13 2   
    21    11    21 1   
    22    11    22 1   
    23    11    23 1   
@<TRIPOS>SUBSTRUCTURE
     1 AM4         1 TEMP              0 ****  ****    0 ROOT
