@<TRIPOS>MOLECULE
AM5
   73    77     1     0     0
SMALL
bcc


@<TRIPOS>ATOM
      1 C7          -4.2380    -3.0210     2.1000 ca         1 AM5      -0.149000
      2 C9          -5.0130    -2.0450     1.4950 ca         1 AM5      -0.080000
      3 C10         -4.4740    -1.2400     0.4970 ca         1 AM5      -0.170600
      4 C11         -5.2290    -0.1470    -0.1840 c          1 AM5       0.694700
      5 N3          -6.5780    -0.3070    -0.2030 ns         1 AM5      -0.468100
      6 C14         -7.5600     0.5600    -0.6840 ca         1 AM5       0.072600
      7 C15         -7.3060     1.8110    -1.2530 ca         1 AM5      -0.122000
      8 C19         -8.3650     2.5920    -1.6870 ca         1 AM5      -0.109000
      9 C18         -9.6790     2.1650    -1.5750 ca         1 AM5      -0.105000
     10 C17         -9.9260     0.9220    -1.0100 ca         1 AM5      -0.166300
     11 C16         -8.8800     0.1270    -0.5680 ca         1 AM5      -0.143000
     12 C20        -11.3210     0.3970    -0.8630 c3         1 AM5       0.720200
     13 F1         -12.2450     1.2700    -1.2690 f          1 AM5      -0.234633
     14 F3         -11.5040    -0.7270    -1.5720 f          1 AM5      -0.234633
     15 F2         -11.6040     0.0900     0.4110 f          1 AM5      -0.234633
     16 C12         -3.1400    -1.4250     0.1450 ca         1 AM5      -0.051000
     17 C13         -2.3700    -2.4150     0.7390 ca         1 AM5      -0.165600
     18 C21         -2.9150    -3.2430     1.7320 ca         1 AM5       0.007700
     19 C22         -2.1290    -4.3190     2.4210 c3         1 AM5      -0.059800
     20 N1           2.8340    -1.9570    -1.7440 nb         1 AM5      -0.753500
     21 C23          1.5750    -2.0430    -1.3720 ca         1 AM5       0.474700
     22 C24          1.0890    -1.3960    -0.2370 ca         1 AM5      -0.250000
     23 C25          2.0150    -0.6430     0.4640 ca         1 AM5       0.474700
     24 N4           3.2790    -0.5280     0.0910 nb         1 AM5      -0.753500
     25 C26          3.6470    -1.1970    -0.9970 ca         1 AM5       0.904900
     26 N6          -0.2500    -1.4570     0.1730 ns         1 AM5      -0.465100
     27 C8          -0.9630    -2.6070     0.2720 c          1 AM5       0.683700
     28 O2          -0.5080    -3.7000    -0.0100 o          1 AM5      -0.572100
     29 N7           4.9280    -1.1410    -1.4390 nu         1 AM5      -0.727300
     30 C27          8.3650     0.1240    -1.3750 ca         1 AM5      -0.150000
     31 C28          8.4120     0.9530    -0.2440 ca         1 AM5       0.128600
     32 C29          7.2380     1.0560     0.5030 ca         1 AM5      -0.150000
     33 C30          6.0690     0.3930     0.1440 ca         1 AM5      -0.139000
     34 C5           6.0360    -0.4260    -0.9800 ca         1 AM5       0.142600
     35 C31          7.2140    -0.5480    -1.7270 ca         1 AM5      -0.139000
     36 C1          12.0130     1.8530     0.0490 c6         1 AM5       0.157300
     37 N2          11.9620     2.7700     1.1690 n3         1 AM5      -0.714600
     38 C3          10.7300     3.5270     1.1230 c6         1 AM5       0.157300
     39 C4           9.5210     2.6110     1.1560 c6         1 AM5       0.195800
     40 N5           9.5780     1.6600     0.0650 nh         1 AM5      -0.646000
     41 C6          10.8260     0.9110     0.0750 c6         1 AM5       0.195800
     42 O1          -4.6500     0.8000    -0.6860 o          1 AM5      -0.578100
     43 H7          -4.6740    -3.6220     2.8880 ha         1 AM5       0.141000
     44 H9          -6.0290    -1.9100     1.8450 ha         1 AM5       0.134000
     45 HN3         -6.9330    -1.1810     0.1510 hn         1 AM5       0.323500
     46 H15         -6.3000     2.1780    -1.3630 ha         1 AM5       0.172000
     47 H19         -8.1540     3.5580    -2.1260 ha         1 AM5       0.142000
     48 H18        -10.4810     2.8000    -1.9230 ha         1 AM5       0.153000
     49 H16         -9.0800    -0.8420    -0.1250 ha         1 AM5       0.140000
     50 H12         -2.7090    -0.7990    -0.6260 ha         1 AM5       0.159000
     51 H22         -1.9840    -5.1800     1.7700 hc         1 AM5       0.058033
     52 H22A        -1.1410    -3.9750     2.7250 hc         1 AM5       0.058033
     53 H22B        -2.6550    -4.6570     3.3120 hc         1 AM5       0.058033
     54 H23          0.9240    -2.6400    -2.0000 h4         1 AM5       0.031600
     55 H25          1.7200    -0.1020     1.3580 h4         1 AM5       0.031600
     56 HN6         -0.6510    -0.6140     0.5540 hn         1 AM5       0.328500
     57 HN7          5.0820    -1.6830    -2.2760 hn         1 AM5       0.455800
     58 H27          9.2340     0.0130    -2.0090 ha         1 AM5       0.132000
     59 H29          7.2030     1.6640     1.3960 ha         1 AM5       0.132000
     60 H30          5.1910     0.5170     0.7560 ha         1 AM5       0.146000
     61 H31          7.2260    -1.1720    -2.6130 ha         1 AM5       0.146000
     62 H1          12.0280     2.3890    -0.9160 h1         1 AM5       0.039200
     63 H1A         12.9310     1.2640     0.1060 h1         1 AM5       0.039200
     64 H3          10.6830     4.1960     1.9860 h1         1 AM5       0.039200
     65 H3A         10.6760     4.1590     0.2180 h1         1 AM5       0.039200
     66 H4           9.4700     2.1090     2.1350 h1         1 AM5       0.043950
     67 H4A          8.6270     3.2280     1.0570 h1         1 AM5       0.043950
     68 H6          10.8860     0.2610    -0.7960 h1         1 AM5       0.043950
     69 H6A         10.8880     0.2690     0.9670 h1         1 AM5       0.043950
     70 H2          13.2040     4.2860     0.3250 h1         1 AM5       0.031367
     71 H2A         13.0790     4.2730     2.0920 h1         1 AM5       0.031367
     72 H2B         14.0300     3.0360     1.2680 h1         1 AM5       0.031367
     73 C2          13.1190     3.6340     1.2080 c3         1 AM5       0.152100
@<TRIPOS>BOND
     1     1     2 ar  
     2     1    18 ar  
     3     1    43 1   
     4     2     3 ar  
     5     2    44 1   
     6     3     4 1   
     7     3    16 ar  
     8     4     5 1   
     9     4    42 2   
    10     5     6 1   
    11     5    45 1   
    12     6     7 ar  
    13     6    11 ar  
    14     7     8 ar  
    15     7    46 1   
    16     8     9 ar  
    17     8    47 1   
    18     9    10 ar  
    19     9    48 1   
    20    10    11 ar  
    21    10    12 1   
    22    11    49 1   
    23    12    13 1   
    24    12    14 1   
    25    12    15 1   
    26    16    17 ar  
    27    16    50 1   
    28    17    18 ar  
    29    17    27 1   
    30    18    19 1   
    31    19    51 1   
    32    19    52 1   
    33    19    53 1   
    34    20    21 ar  
    35    20    25 ar  
    36    21    22 ar  
    37    21    54 1   
    38    22    23 ar  
    39    22    26 1   
    40    23    24 ar  
    41    23    55 1   
    42    24    25 ar  
    43    25    29 1   
    44    26    27 1   
    45    26    56 1   
    46    27    28 2   
    47    29    34 1   
    48    29    57 1   
    49    30    31 ar  
    50    30    35 ar  
    51    30    58 1   
    52    31    32 ar  
    53    31    40 1   
    54    32    33 ar  
    55    32    59 1   
    56    33    34 ar  
    57    33    60 1   
    58    34    35 ar  
    59    35    61 1   
    60    36    37 1   
    61    36    41 1   
    62    36    62 1   
    63    36    63 1   
    64    37    38 1   
    65    37    73 1   
    66    38    39 1   
    67    38    64 1   
    68    38    65 1   
    69    39    40 1   
    70    39    66 1   
    71    39    67 1   
    72    40    41 1   
    73    41    68 1   
    74    41    69 1   
    75    70    73 1   
    76    71    73 1   
    77    72    73 1   
@<TRIPOS>SUBSTRUCTURE
     1 AM5         1 TEMP              0 ****  ****    0 ROOT
