@<TRIPOS>MOLECULE
AM5
   73    77     1     0     0
SMALL
No Charge or Current Charge


@<TRIPOS>ATOM
      1 C7          -4.8230    -3.9600     0.9030 ca         1 AM5      -0.131000
      2 C9          -5.2450    -2.6700     0.5540 ca         1 AM5      -0.062000
      3 C10         -4.3160    -1.7210     0.0780 ca         1 AM5      -0.170600
      4 C11         -4.7290    -0.3120    -0.3170 c          1 AM5       0.627700
      5 N3          -6.0820    -0.0170    -0.1820 ns         1 AM5      -0.142000
      6 C14         -6.8430     1.1570    -0.4440 ca         1 AM5      -0.020000
      7 C15         -6.2950     2.3470    -0.9700 ca         1 AM5      -0.104000
      8 C19         -7.1190     3.4600    -1.2060 ca         1 AM5      -0.091000
      9 C18         -8.4910     3.4020    -0.9180 ca         1 AM5      -0.087000
     10 C17         -9.0580     2.2260    -0.3840 ca         1 AM5      -0.166300
     11 C16         -8.2220     1.1090    -0.1600 ca         1 AM5      -0.125000
     12 C20        -10.5590     2.1480    -0.0760 c3         1 AM5       0.356300
     13 F1         -11.0970     3.3600     0.1950 f          1 AM5      -0.113333
     14 F3         -11.2490     1.6360    -1.1210 f          1 AM5      -0.113333
     15 F2         -10.8230     1.3630     0.9940 f          1 AM5      -0.113333
     16 C12         -2.9610    -2.1050    -0.0360 ca         1 AM5      -0.033000
     17 C13         -2.5160    -3.4070     0.3130 ca         1 AM5      -0.165600
     18 C21         -3.4740    -4.3450     0.7920 ca         1 AM5       0.007700
     19 C22         -3.1060    -5.7600     1.2350 c3         1 AM5      -0.059800
     20 N1           3.4400    -3.5320    -0.3070 nb         1 AM5      -0.227500
     21 C23          2.1060    -3.6860    -0.1830 ca         1 AM5       0.146400
     22 C24          1.2540    -2.5840     0.0540 ca         1 AM5      -0.212000
     23 C25          1.8700    -1.3210     0.1510 ca         1 AM5       0.146400
     24 N4           3.2010    -1.1670     0.0260 nb         1 AM5      -0.227500
     25 C26          3.9210    -2.2840    -0.1860 ca         1 AM5       0.378900
     26 N6          -0.1650    -2.6770     0.1950 ns         1 AM5      -0.139000
     27 C8          -1.0420    -3.7600     0.1540 c          1 AM5       0.616700
     28 O2          -0.6580    -4.9070    -0.0440 o          1 AM5      -0.572100
     29 N7           5.2980    -2.1720    -0.3530 nu         1 AM5      -0.920900
     30 C27          8.3930    -0.1750    -0.8030 ca         1 AM5      -0.132000
     31 C28          8.1840     0.9130     0.0650 ca         1 AM5       0.267000
     32 C29          6.9860     0.9620     0.8060 ca         1 AM5      -0.132000
     33 C30          6.0180    -0.0530     0.6770 ca         1 AM5      -0.121000
     34 C5           6.2260    -1.1330    -0.2030 ca         1 AM5       0.281000
     35 C31          7.4260    -1.1900    -0.9310 ca         1 AM5      -0.121000
     36 C1          11.6090     2.6570     0.0850 c6         1 AM5       0.157300
     37 N2          11.2600     4.0180     0.5940 n3         1 AM5      -0.714600
     38 C3           9.8720     4.3760     0.1670 c6         1 AM5       0.157300
     39 C4           8.8090     3.3160     0.6070 c6         1 AM5       0.195800
     40 N5           9.1680     1.9250     0.1800 nh         1 AM5      -0.784400
     41 C6          10.5820     1.5620     0.5230 c6         1 AM5       0.195800
     42 O1          -3.9020     0.4970    -0.7230 o          1 AM5      -0.578100
     43 H7          -5.5620    -4.6690     1.2710 ha         1 AM5       0.123000
     44 H9          -6.3010    -2.4320     0.6630 ha         1 AM5       0.116000
     45 HN3         -6.6360    -0.7860     0.1690 hn         1 AM5       0.157000
     46 H15         -5.2400     2.4320    -1.2080 ha         1 AM5       0.154000
     47 H19         -6.6910     4.3730    -1.6160 ha         1 AM5       0.124000
     48 H18         -9.1110     4.2750    -1.1160 ha         1 AM5       0.135000
     49 H16         -8.6490     0.1900     0.2380 ha         1 AM5       0.122000
     50 H12         -2.2530    -1.3770    -0.4280 ha         1 AM5       0.141000
     51 H22         -2.8430    -6.3870     0.3760 hc         1 AM5       0.058033
     52 H22A        -2.2570    -5.7530     1.9300 hc         1 AM5       0.058033
     53 H22B        -3.9350    -6.2550     1.7540 hc         1 AM5       0.058033
     54 H23          1.7410    -4.7050    -0.2800 h4         1 AM5       0.031600
     55 H25          1.2880    -0.4170     0.3280 h4         1 AM5       0.031600
     56 HN6         -0.6180    -1.7900     0.3740 hn         1 AM5       0.162000
     57 HN7          5.7030    -3.0270    -0.7340 hn         1 AM5       0.511000
     58 H27          9.3040    -0.2310    -1.3920 ha         1 AM5       0.114000
     59 H29          6.8010     1.7770     1.5000 ha         1 AM5       0.114000
     60 H30          5.1200    -0.0000     1.2840 ha         1 AM5       0.128000
     61 H31          7.6100    -2.0180    -1.6110 ha         1 AM5       0.128000
     62 H1          11.6550     2.6680    -1.0150 h1         1 AM5       0.039200
     63 H1A         12.6060     2.3620     0.4420 h1         1 AM5       0.039200
     64 H3           9.5850     5.3520     0.5850 h1         1 AM5       0.039200
     65 H3A          9.8310     4.4730    -0.9280 h1         1 AM5       0.039200
     66 H4           8.7090     3.3540     1.7020 h1         1 AM5       0.043950
     67 H4A          7.8380     3.6070     0.1780 h1         1 AM5       0.043950
     68 H6          10.8690     0.6130     0.0480 h1         1 AM5       0.043950
     69 H6A         10.6680     1.4160     1.6100 h1         1 AM5       0.043950
     70 H2          12.3110     5.1510    -0.8780 h1         1 AM5       0.031367
     71 H2A         11.9910     6.0180     0.6430 h1         1 AM5       0.031367
     72 H2B         13.2530     4.7690     0.5830 h1         1 AM5       0.031367
     73 C2          12.2550     5.0430     0.2140 c3         1 AM5       0.152100
@<TRIPOS>BOND
     1     1     2 ar  
     2     1    18 ar  
     3     1    43 1   
     4     2     3 ar  
     5     2    44 1   
     6     3     4 1   
     7     3    16 ar  
     8     4     5 1   
     9     4    42 2   
    10     5     6 1   
    11     5    45 1   
    12     6     7 ar  
    13     6    11 ar  
    14     7     8 ar  
    15     7    46 1   
    16     8     9 ar  
    17     8    47 1   
    18     9    10 ar  
    19     9    48 1   
    20    10    11 ar  
    21    10    12 1   
    22    11    49 1   
    23    12    13 1   
    24    12    14 1   
    25    12    15 1   
    26    16    17 ar  
    27    16    50 1   
    28    17    18 ar  
    29    17    27 1   
    30    18    19 1   
    31    19    51 1   
    32    19    52 1   
    33    19    53 1   
    34    20    21 ar  
    35    20    25 ar  
    36    21    22 ar  
    37    21    54 1   
    38    22    23 ar  
    39    22    26 1   
    40    23    24 ar  
    41    23    55 1   
    42    24    25 ar  
    43    25    29 1   
    44    26    27 1   
    45    26    56 1   
    46    27    28 2   
    47    29    34 1   
    48    29    57 1   
    49    30    31 ar  
    50    30    35 ar  
    51    30    58 1   
    52    31    32 ar  
    53    31    40 1   
    54    32    33 ar  
    55    32    59 1   
    56    33    34 ar  
    57    33    60 1   
    58    34    35 ar  
    59    35    61 1   
    60    36    37 1   
    61    36    41 1   
    62    36    62 1   
    63    36    63 1   
    64    37    38 1   
    65    37    73 1   
    66    38    39 1   
    67    38    64 1   
    68    38    65 1   
    69    39    40 1   
    70    39    66 1   
    71    39    67 1   
    72    40    41 1   
    73    41    68 1   
    74    41    69 1   
    75    70    73 1   
    76    71    73 1   
    77    72    73 1   
@<TRIPOS>SUBSTRUCTURE
     1 AM5         1 TEMP              0 ****  ****    0 ROOT
