@<TRIPOS>MOLECULE
AM6
   76    80     1     0     0
SMALL
No Charge or Current Charge


@<TRIPOS>ATOM
      1 C9          -5.4500     4.9080    -0.8030 ca         1 AM6      -0.093000
      2 C10         -5.9290     3.6050    -0.6150 ca         1 AM6      -0.142000
      3 C11         -5.0570     2.5750    -0.2370 ca         1 AM6      -0.033000
      4 N3          -5.6140     1.2780    -0.0590 ns         1 AM6      -0.142000
      5 C7          -5.0370     0.0210     0.0950 c          1 AM6       0.620700
      6 C14         -6.0270    -1.1060     0.3490 ca         1 AM6      -0.170600
      7 C15         -7.2080    -0.8090     1.0690 ca         1 AM6      -0.058000
      8 C19         -8.1340    -1.8110     1.3700 ca         1 AM6      -0.125000
      9 C18         -7.8970    -3.1290     0.9750 ca         1 AM6      -0.042000
     10 C17         -6.7300    -3.4740     0.2550 ca         1 AM6      -0.204300
     11 C16         -5.7950    -2.4470    -0.0890 ca         1 AM6       0.035700
     12 C20         -6.5200    -4.9540    -0.1360 c3         1 AM6       0.357300
     13 F1          -7.3840    -5.7930     0.4820 f          1 AM6      -0.112333
     14 F3          -6.6890    -5.1500    -1.4640 f          1 AM6      -0.112333
     15 F2          -5.2830    -5.3990     0.1850 f          1 AM6      -0.112333
     16 C12         -3.6940     2.8750    -0.0300 ca         1 AM6      -0.113000
     17 C13         -3.1840     4.1890    -0.2150 ca         1 AM6      -0.128600
     18 C21         -4.0890     5.2170    -0.6130 ca         1 AM6      -0.042300
     19 C22         -3.6480     6.6550    -0.8810 c3         1 AM6      -0.048800
     20 N1           2.7500     3.9690     0.5900 nb         1 AM6      -0.226500
     21 C23          1.4300     4.1990     0.4400 ca         1 AM6       0.141900
     22 C24          0.5350     3.1660     0.0840 ca         1 AM6      -0.203000
     23 C25          1.0920     1.8860    -0.1010 ca         1 AM6       0.141900
     24 N4           2.4100     1.6550     0.0480 nb         1 AM6      -0.226500
     25 C26          3.1750     2.7120     0.3760 ca         1 AM6       0.374900
     26 N6          -0.8720     3.3410    -0.0900 ns         1 AM6      -0.138000
     27 C8          -1.7000     4.4570     0.0280 c          1 AM6       0.616700
     28 O2          -1.2710     5.5600     0.3480 o          1 AM6      -0.574100
     29 N7           4.5390     2.5170     0.5740 nu         1 AM6      -0.922900
     30 O1          -3.8250    -0.1610     0.0840 o          1 AM6      -0.567100
     31 C27         -4.5670    -2.7660    -0.9580 c3         1 AM6      -0.067800
     32 C28          7.5180     0.3370     0.9430 ca         1 AM6      -0.128000
     33 C29          7.2860    -0.6650    -0.0190 ca         1 AM6       0.256000
     34 C30          6.1140    -0.5880    -0.8010 ca         1 AM6      -0.128000
     35 C31          5.1920     0.4600    -0.6130 ca         1 AM6      -0.124000
     36 C5           5.4200     1.4490     0.3630 ca         1 AM6       0.286000
     37 C32          6.5970     1.3850     1.1280 ca         1 AM6      -0.124000
     38 C1          10.0410    -3.2450     0.7430 c6         1 AM6       0.160300
     39 N2          10.0820    -4.0400    -0.5240 n3         1 AM6      -0.713600
     40 C3           9.7390    -3.1440    -1.6720 c6         1 AM6       0.160300
     41 C4           8.3550    -2.4290    -1.5060 c6         1 AM6       0.156800
     42 N5           8.2250    -1.7110    -0.1950 nh         1 AM6      -0.774400
     43 C6           8.6670    -2.5320     0.9820 c6         1 AM6       0.156800
     44 H9          -6.1490     5.6860    -1.1050 ha         1 AM6       0.119000
     45 H10         -6.9850     3.3970    -0.7720 ha         1 AM6       0.113000
     46 HN3         -6.6250     1.2670    -0.0560 hn         1 AM6       0.157000
     47 H15         -7.4090     0.1970     1.4300 ha         1 AM6       0.124000
     48 H19         -9.0350    -1.5660     1.9280 ha         1 AM6       0.128000
     49 H18         -8.6380    -3.8810     1.2380 ha         1 AM6       0.136000
     50 H12         -3.0300     2.0900     0.3140 ha         1 AM6       0.153000
     51 H22         -3.3850     7.1680     0.0520 hc         1 AM6       0.052367
     52 H22A        -2.7810     6.6900    -1.5500 hc         1 AM6       0.052367
     53 H22B        -4.4410     7.2430    -1.3590 hc         1 AM6       0.052367
     54 H23          1.1110     5.2240     0.6120 h4         1 AM6       0.032100
     55 H25          0.4740     1.0310    -0.3720 h4         1 AM6       0.032100
     56 HN6         -1.3590     2.4980    -0.3660 hn         1 AM6       0.161000
     57 HN7          4.9710     3.3150     1.0390 hn         1 AM6       0.511000
     58 H27         -3.6790    -2.9270    -0.3370 hc         1 AM6       0.062700
     59 H27A        -4.6950    -3.6490    -1.5890 hc         1 AM6       0.062700
     60 H27B        -4.3490    -1.9530    -1.6600 hc         1 AM6       0.062700
     61 H28          8.4230     0.3130     1.5420 ha         1 AM6       0.114000
     62 H30          5.9060    -1.3410    -1.5540 ha         1 AM6       0.114000
     63 H31          4.3120     0.5010    -1.2460 ha         1 AM6       0.127500
     64 H32          6.8010     2.1460     1.8760 ha         1 AM6       0.127500
     65 H1          10.2660    -3.8850     1.6100 h1         1 AM6       0.059450
     66 H1A         10.8230    -2.4710     0.7180 h1         1 AM6       0.059450
     67 H3          10.5100    -2.3670    -1.7760 h1         1 AM6       0.059450
     68 H3A          9.7380    -3.7080    -2.6170 h1         1 AM6       0.059450
     69 H4           8.2370    -1.7190    -2.3370 h1         1 AM6       0.040200
     70 H4A          7.5530    -3.1760    -1.6010 h1         1 AM6       0.040200
     71 H6           7.9040    -3.2920     1.2040 h1         1 AM6       0.040200
     72 H6A          8.7610    -1.9060     1.8800 h1         1 AM6       0.040200
     73 H2           8.1950    -5.0410    -0.3300 h1         1 AM6       0.030367
     74 H2A          9.3620    -5.8430    -1.4040 h1         1 AM6       0.030367
     75 H2B          9.5820    -5.9170     0.3550 h1         1 AM6       0.030367
     76 C2           9.2590    -5.2720    -0.4720 c3         1 AM6       0.152100
@<TRIPOS>BOND
     1     1     2 ar  
     2     1    18 ar  
     3     1    44 1   
     4     2     3 ar  
     5     2    45 1   
     6     3     4 1   
     7     3    16 ar  
     8     4     5 1   
     9     4    46 1   
    10     5     6 1   
    11     5    30 2   
    12     6     7 ar  
    13     6    11 ar  
    14     7     8 ar  
    15     7    47 1   
    16     8     9 ar  
    17     8    48 1   
    18     9    10 ar  
    19     9    49 1   
    20    10    11 ar  
    21    10    12 1   
    22    11    31 1   
    23    12    13 1   
    24    12    14 1   
    25    12    15 1   
    26    16    17 ar  
    27    16    50 1   
    28    17    18 ar  
    29    17    27 1   
    30    18    19 1   
    31    19    51 1   
    32    19    52 1   
    33    19    53 1   
    34    20    21 ar  
    35    20    25 ar  
    36    21    22 ar  
    37    21    54 1   
    38    22    23 ar  
    39    22    26 1   
    40    23    24 ar  
    41    23    55 1   
    42    24    25 ar  
    43    25    29 1   
    44    26    27 1   
    45    26    56 1   
    46    27    28 2   
    47    29    36 1   
    48    29    57 1   
    49    31    58 1   
    50    31    59 1   
    51    31    60 1   
    52    32    33 ar  
    53    32    37 ar  
    54    32    61 1   
    55    33    34 ar  
    56    33    42 1   
    57    34    35 ar  
    58    34    62 1   
    59    35    36 ar  
    60    35    63 1   
    61    36    37 ar  
    62    37    64 1   
    63    38    39 1   
    64    38    43 1   
    65    38    65 1   
    66    38    66 1   
    67    39    40 1   
    68    39    76 1   
    69    40    41 1   
    70    40    67 1   
    71    40    68 1   
    72    41    42 1   
    73    41    69 1   
    74    41    70 1   
    75    42    43 1   
    76    43    71 1   
    77    43    72 1   
    78    73    76 1   
    79    74    76 1   
    80    75    76 1   
@<TRIPOS>SUBSTRUCTURE
     1 AM6         1 TEMP              0 ****  ****    0 ROOT
