@<TRIPOS>MOLECULE
AM6
   76    80     1     0     0
SMALL
bcc


@<TRIPOS>ATOM
      1 C9          -4.7050     4.3860    -1.8090 ca         1 AM6      -0.111000
      2 C10         -5.5090     3.3170    -1.4570 ca         1 AM6      -0.160000
      3 C11         -5.0220     2.3100    -0.6270 ca         1 AM6       0.059600
      4 N3          -5.8940     1.2600    -0.3180 ns         1 AM6      -0.468100
      5 C7          -5.7180     0.2280     0.5400 c          1 AM6       0.687700
      6 C14         -6.9250    -0.6520     0.6760 ca         1 AM6      -0.170600
      7 C15         -8.1100    -0.0630     1.1060 ca         1 AM6      -0.076000
      8 C19         -9.2270    -0.8390     1.3500 ca         1 AM6      -0.143000
      9 C18         -9.1560    -2.2070     1.1610 ca         1 AM6      -0.060000
     10 C17         -7.9780    -2.7990     0.7190 ca         1 AM6      -0.204300
     11 C16         -6.8330    -2.0310     0.4560 ca         1 AM6       0.035700
     12 C20         -7.9630    -4.2880     0.5220 c3         1 AM6       0.721200
     13 F1          -9.0750    -4.8720     0.9790 f          1 AM6      -0.233633
     14 F3          -7.8620    -4.6300    -0.7720 f          1 AM6      -0.233633
     15 F2          -6.9400    -4.8740     1.1600 f          1 AM6      -0.233633
     16 C12         -3.7100     2.4010    -0.1710 ca         1 AM6      -0.131000
     17 C13         -2.9140     3.4880    -0.5280 ca         1 AM6      -0.128600
     18 C21         -3.3960     4.5110    -1.3500 ca         1 AM6      -0.042300
     19 C22         -2.5720     5.6940    -1.7690 c3         1 AM6      -0.048800
     20 N1           2.2160     2.4380     1.9550 nb         1 AM6      -0.752500
     21 C23          0.9730     2.6490     1.5760 ca         1 AM6       0.470200
     22 C24          0.4830     2.1970     0.3510 ca         1 AM6      -0.241000
     23 C25          1.3890     1.5020    -0.4330 ca         1 AM6       0.470200
     24 N4           2.6340     1.2650    -0.0570 nb         1 AM6      -0.752500
     25 C26          3.0070     1.7470     1.1240 ca         1 AM6       0.900900
     26 N6          -0.8380     2.3800    -0.0770 ns         1 AM6      -0.464100
     27 C8          -1.5250     3.5470     0.0220 c          1 AM6       0.683700
     28 O2          -1.0570     4.5510     0.5260 o          1 AM6      -0.574100
     29 N7           4.2700     1.5490     1.5800 nu         1 AM6      -0.729300
     30 O1          -4.7020     0.0200     1.1780 o          1 AM6      -0.567100
     31 C27         -5.5490    -2.6340    -0.0500 c3         1 AM6      -0.067800
     32 C28          7.5980     0.0260     1.4180 ca         1 AM6      -0.146000
     33 C29          7.6600    -0.5400     0.1360 ca         1 AM6       0.117600
     34 C30          6.5340    -0.3820    -0.6720 ca         1 AM6      -0.146000
     35 C31          5.4020     0.3030    -0.2420 ca         1 AM6      -0.142000
     36 C5           5.3470     0.8470     1.0380 ca         1 AM6       0.147600
     37 C32          6.4730     0.6920     1.8560 ca         1 AM6      -0.142000
     38 C1          10.7530    -2.6260     0.1800 c6         1 AM6       0.160300
     39 N2          10.8600    -3.0350    -1.2070 n3         1 AM6      -0.713600
     40 C3          10.3040    -1.9970    -2.0530 c6         1 AM6       0.160300
     41 C4           8.8830    -1.5860    -1.6860 c6         1 AM6       0.156800
     42 N5           8.8230    -1.1910    -0.2900 nh         1 AM6      -0.636000
     43 C6           9.3430    -2.2280     0.5980 c6         1 AM6       0.156800
     44 H9          -5.1120     5.1480    -2.4620 ha         1 AM6       0.137000
     45 H10         -6.5240     3.2670    -1.8330 ha         1 AM6       0.131000
     46 HN3         -6.7770     1.2870    -0.8060 hn         1 AM6       0.323500
     47 H15         -8.1550     1.0070     1.2690 ha         1 AM6       0.142000
     48 H19        -10.1460    -0.3850     1.6930 ha         1 AM6       0.146000
     49 H18        -10.0330    -2.8060     1.3640 ha         1 AM6       0.154000
     50 H12         -3.3080     1.6370     0.4750 ha         1 AM6       0.171000
     51 H22         -2.4300     6.3960    -0.9470 hc         1 AM6       0.052367
     52 H22A        -1.5820     5.4050    -2.1200 hc         1 AM6       0.052367
     53 H22B        -3.0670     6.2290    -2.5790 hc         1 AM6       0.052367
     54 H23          0.3400     3.1870     2.2710 h4         1 AM6       0.032100
     55 H25          1.0900     1.1110    -1.4000 h4         1 AM6       0.032100
     56 HN6         -1.2400     1.6420    -0.6340 hn         1 AM6       0.327500
     57 HN7          4.4290     1.9400     2.4960 hn         1 AM6       0.455800
     58 H27         -4.9290    -2.9860     0.7740 hc         1 AM6       0.062700
     59 H27A        -5.7170    -3.4710    -0.7210 hc         1 AM6       0.062700
     60 H27B        -4.9630    -1.9090    -0.6080 hc         1 AM6       0.062700
     61 H28          8.4480    -0.0400     2.0840 ha         1 AM6       0.132000
     62 H30          6.5090    -0.7980    -1.6700 ha         1 AM6       0.132000
     63 H31          4.5630     0.3920    -0.9130 ha         1 AM6       0.145500
     64 H32          6.4710     1.1140     2.8550 ha         1 AM6       0.145500
     65 H1          11.1070    -3.4330     0.8270 h1         1 AM6       0.059450
     66 H1A         11.4180    -1.7710     0.3390 h1         1 AM6       0.059450
     67 H3          10.9490    -1.1150    -1.9810 h1         1 AM6       0.059450
     68 H3A         10.3250    -2.3260    -3.0950 h1         1 AM6       0.059450
     69 H4           8.6010    -0.7380    -2.3130 h1         1 AM6       0.040200
     70 H4A          8.1760    -2.4000    -1.9130 h1         1 AM6       0.040200
     71 H6           8.6790    -3.1050     0.6000 h1         1 AM6       0.040200
     72 H6A          9.3790    -1.8600     1.6220 h1         1 AM6       0.040200
     73 H2           9.2470    -4.4760    -1.2880 h1         1 AM6       0.030367
     74 H2A         10.5050    -4.6170    -2.5160 h1         1 AM6       0.030367
     75 H2B         10.8420    -5.0890    -0.8550 h1         1 AM6       0.030367
     76 C2          10.3230    -4.3550    -1.4720 c3         1 AM6       0.152100
@<TRIPOS>BOND
     1     1     2 ar  
     2     1    18 ar  
     3     1    44 1   
     4     2     3 ar  
     5     2    45 1   
     6     3     4 1   
     7     3    16 ar  
     8     4     5 1   
     9     4    46 1   
    10     5     6 1   
    11     5    30 2   
    12     6     7 ar  
    13     6    11 ar  
    14     7     8 ar  
    15     7    47 1   
    16     8     9 ar  
    17     8    48 1   
    18     9    10 ar  
    19     9    49 1   
    20    10    11 ar  
    21    10    12 1   
    22    11    31 1   
    23    12    13 1   
    24    12    14 1   
    25    12    15 1   
    26    16    17 ar  
    27    16    50 1   
    28    17    18 ar  
    29    17    27 1   
    30    18    19 1   
    31    19    51 1   
    32    19    52 1   
    33    19    53 1   
    34    20    21 ar  
    35    20    25 ar  
    36    21    22 ar  
    37    21    54 1   
    38    22    23 ar  
    39    22    26 1   
    40    23    24 ar  
    41    23    55 1   
    42    24    25 ar  
    43    25    29 1   
    44    26    27 1   
    45    26    56 1   
    46    27    28 2   
    47    29    36 1   
    48    29    57 1   
    49    31    58 1   
    50    31    59 1   
    51    31    60 1   
    52    32    33 ar  
    53    32    37 ar  
    54    32    61 1   
    55    33    34 ar  
    56    33    42 1   
    57    34    35 ar  
    58    34    62 1   
    59    35    36 ar  
    60    35    63 1   
    61    36    37 ar  
    62    37    64 1   
    63    38    39 1   
    64    38    43 1   
    65    38    65 1   
    66    38    66 1   
    67    39    40 1   
    68    39    76 1   
    69    40    41 1   
    70    40    67 1   
    71    40    68 1   
    72    41    42 1   
    73    41    69 1   
    74    41    70 1   
    75    42    43 1   
    76    43    71 1   
    77    43    72 1   
    78    73    76 1   
    79    74    76 1   
    80    75    76 1   
@<TRIPOS>SUBSTRUCTURE
     1 AM6         1 TEMP              0 ****  ****    0 ROOT
