@<TRIPOS>MOLECULE
AM7
   80    85     1     0     0
SMALL
No Charge or Current Charge


@<TRIPOS>ATOM
      1 N1         -10.8220     0.5060    -1.1830 n3         1 AM7      -0.715600
      2 N3           7.4870     0.1360    -0.6790 nc         1 AM7      -0.632300
      3 C4         -11.8160    -0.1260    -2.1080 c6         1 AM7       0.126300
      4 C5          10.1900     0.7990    -1.1260 ca         1 AM7      -0.071300
      5 C6          10.4380     1.9760    -0.3920 ca         1 AM7      -0.090500
      6 C7          10.8030     3.1620    -1.0530 ca         1 AM7      -0.108000
      7 C8          10.9230     3.1780    -2.4530 ca         1 AM7      -0.102000
      8 C10         10.3130     0.8220    -2.5300 ca         1 AM7      -0.090500
      9 C13          8.3330    -0.6390    -0.0060 cd         1 AM7       0.509900
     10 C15          1.4100    -0.7180     1.4940 ca         1 AM7       0.049100
     11 C17          3.2690    -0.4110    -0.0570 ca         1 AM7      -0.145000
     12 C20          2.3240    -0.9940     2.5190 ca         1 AM7      -0.089000
     13 C21         -2.1760    -1.0020     0.9040 ca         1 AM7      -0.088000
     14 C22         -2.5970     0.2270     1.4580 ca         1 AM7      -0.153000
     15 C24         -4.8320    -0.1280     0.5450 ca         1 AM7       0.152100
     16 C26         -3.0830    -1.8010     0.1660 ca         1 AM7       0.304000
     17 C28         -0.4910    -2.6920     0.5000 ca         1 AM7      -0.256000
     18 C1         -11.4710     0.8440     0.1270 c6         1 AM7       0.126300
     19 C2         -12.7700     1.6820    -0.0670 c6         1 AM7       0.153100
     20 O1         -13.6850     0.9980    -0.9560 os         1 AM7      -0.450000
     21 C3         -13.1040     0.7370    -2.2560 c6         1 AM7       0.153100
     22 C33         -9.5830    -0.3000    -1.0580 c3         1 AM7       0.170800
     23 C32         -8.4310     0.4010    -0.3050 c3         1 AM7      -0.083400
     24 C31         -7.1260    -0.4120    -0.3450 c3         1 AM7       0.159600
     25 O3          -6.1320     0.3260     0.3850 os         1 AM7      -0.324100
     26 C25         -4.4020    -1.3550    -0.0050 ca         1 AM7      -0.186000
     27 C23         -3.9260     0.6690     1.2810 ca         1 AM7       0.116100
     28 O2          -4.3740     1.8690     1.8100 os         1 AM7      -0.319100
     29 C35         -3.5260     2.7470     2.5710 c3         1 AM7       0.142900
     30 N4          -2.7190    -2.9830    -0.3800 nb         1 AM7      -0.684000
     31 C27         -1.4510    -3.4160    -0.2140 ca         1 AM7       0.378900
     32 C29         -0.8520    -1.4600     1.0630 ca         1 AM7       0.184100
     33 O4           0.0630    -0.7200     1.7840 os         1 AM7      -0.236200
     34 C16          1.8890    -0.4140     0.2040 ca         1 AM7       0.162000
     35 F1           1.0310    -0.1120    -0.7990 f          1 AM7      -0.162000
     36 C19          3.7060    -0.9950     2.2550 ca         1 AM7      -0.088000
     37 C18          4.2060    -0.7150     0.9600 ca         1 AM7       0.008200
     38 C11          5.6690    -0.6990     0.6710 cd         1 AM7      -0.223400
     39 C12          6.5980    -1.6390     1.3560 c          1 AM7       0.565200
     40 O5           6.2330    -2.4550     2.1920 o          1 AM7      -0.539000
     41 N2           7.9390    -1.5550     0.9610 n          1 AM7      -0.312300
     42 C34          8.9290    -2.4730     1.5950 c3         1 AM7       0.063300
     43 C14          6.1490     0.0950    -0.3530 cc         1 AM7       0.108600
     44 C9          10.6780     2.0080    -3.1910 ca         1 AM7      -0.108000
     45 H41        -11.3720    -0.2680    -3.1040 h1         1 AM7       0.041450
     46 H42        -12.1010    -1.1220    -1.7380 h1         1 AM7       0.041450
     47 H6          10.3460     1.9730     0.6920 ha         1 AM7       0.109500
     48 H7          10.9920     4.0670    -0.4810 ha         1 AM7       0.114000
     49 H8          11.2060     4.0960    -2.9650 ha         1 AM7       0.114000
     50 H10         10.1230    -0.0790    -3.1100 ha         1 AM7       0.109500
     51 H17          3.5910    -0.2010    -1.0720 ha         1 AM7       0.135000
     52 H20          1.9640    -1.2060     3.5230 ha         1 AM7       0.135000
     53 H22         -1.8860     0.8270     2.0190 ha         1 AM7       0.136000
     54 H28          0.5110    -3.0930     0.6110 ha         1 AM7       0.135000
     55 H11        -11.7230    -0.0760     0.6760 h1         1 AM7       0.041450
     56 H12        -10.7870     1.4220     0.7640 h1         1 AM7       0.041450
     57 H21        -13.2620     1.8400     0.9030 h1         1 AM7       0.050950
     58 H22A       -12.5220     2.6660    -0.4890 h1         1 AM7       0.050950
     59 H31        -12.8630     1.6920    -2.7460 h1         1 AM7       0.050950
     60 H32        -13.8390     0.2080    -2.8790 h1         1 AM7       0.050950
     61 H331        -9.8040    -1.2520    -0.5550 h1         1 AM7       0.031200
     62 H332        -9.2170    -0.5480    -2.0640 h1         1 AM7       0.031200
     63 H321        -8.2560     1.3850    -0.7540 hc         1 AM7       0.064700
     64 H322        -8.7120     0.5600     0.7420 hc         1 AM7       0.064700
     65 H311        -7.2930    -1.3960     0.1130 h1         1 AM7       0.037200
     66 H312        -6.8140    -0.5550    -1.3880 h1         1 AM7       0.037200
     67 H25         -5.0800    -1.9810    -0.5730 ha         1 AM7       0.138000
     68 H351        -4.0860     3.6350     2.8890 h1         1 AM7       0.042367
     69 H352        -3.1490     2.2430     3.4700 h1         1 AM7       0.042367
     70 H353        -2.6710     3.0820     1.9690 h1         1 AM7       0.042367
     71 H27         -1.2010    -4.3760    -0.6650 h4         1 AM7       0.017100
     72 H19          4.3810    -1.1790     3.0850 ha         1 AM7       0.135000
     73 H341         9.4710    -1.9390     2.3850 h1         1 AM7       0.061033
     74 H342         8.4440    -3.3530     2.0330 h1         1 AM7       0.061033
     75 H343         9.6460    -2.8370     0.8490 h1         1 AM7       0.061033
     76 H14          5.5250     0.7750    -0.9280 h4         1 AM7       0.217000
     77 H301        10.0770    -1.3520    -1.0200 hc         1 AM7       0.068700
     78 H302        10.4250    -0.5650     0.4950 hc         1 AM7       0.068700
     79 H9          10.7700     2.0190    -4.2750 ha         1 AM7       0.114000
     80 C30          9.7990    -0.4910    -0.4010 c3         1 AM7      -0.070400
@<TRIPOS>BOND
     1     1     3 1   
     2     1    18 1   
     3     1    22 1   
     4     2     9 2   
     5     2    43 1   
     6     3    21 1   
     7     3    45 1   
     8     3    46 1   
     9     4     5 ar  
    10     4     8 ar  
    11     4    80 1   
    12     5     6 ar  
    13     5    47 1   
    14     6     7 ar  
    15     6    48 1   
    16     7    44 ar  
    17     7    49 1   
    18     8    44 ar  
    19     8    50 1   
    20     9    41 1   
    21     9    80 1   
    22    10    12 ar  
    23    10    33 1   
    24    10    34 ar  
    25    11    34 ar  
    26    11    37 ar  
    27    11    51 1   
    28    12    36 ar  
    29    12    52 1   
    30    13    14 ar  
    31    13    16 ar  
    32    13    32 ar  
    33    14    27 ar  
    34    14    53 1   
    35    15    25 1   
    36    15    26 ar  
    37    15    27 ar  
    38    16    26 ar  
    39    16    30 ar  
    40    17    31 ar  
    41    17    32 ar  
    42    17    54 1   
    43    18    19 1   
    44    18    55 1   
    45    18    56 1   
    46    19    20 1   
    47    19    57 1   
    48    19    58 1   
    49    20    21 1   
    50    21    59 1   
    51    21    60 1   
    52    22    23 1   
    53    22    61 1   
    54    22    62 1   
    55    23    24 1   
    56    23    63 1   
    57    23    64 1   
    58    24    25 1   
    59    24    65 1   
    60    24    66 1   
    61    26    67 1   
    62    27    28 1   
    63    28    29 1   
    64    29    68 1   
    65    29    69 1   
    66    29    70 1   
    67    30    31 ar  
    68    31    71 1   
    69    32    33 1   
    70    34    35 1   
    71    36    37 ar  
    72    36    72 1   
    73    37    38 1   
    74    38    39 1   
    75    38    43 2   
    76    39    40 2   
    77    39    41 1   
    78    41    42 1   
    79    42    73 1   
    80    42    74 1   
    81    42    75 1   
    82    43    76 1   
    83    44    79 1   
    84    77    80 1   
    85    78    80 1   
@<TRIPOS>SUBSTRUCTURE
     1 AM7         1 TEMP              0 ****  ****    0 ROOT
