@<TRIPOS>MOLECULE
AM7
   80    85     1     0     0
SMALL
bcc


@<TRIPOS>ATOM
      1 N1         -10.9170     0.0800    -0.7140 n3         1 AM7      -0.715600
      2 N3           7.7020     0.3300    -0.3330 nc         1 AM7      -0.632300
      3 C4         -11.8790    -0.7940    -1.3600 c6         1 AM7       0.126300
      4 C5          10.4230     0.4610    -0.5690 ca         1 AM7      -0.071300
      5 C6          10.8180     1.4620     0.3130 ca         1 AM7      -0.108500
      6 C7          11.3870     2.6370    -0.1590 ca         1 AM7      -0.126000
      7 C8          11.5680     2.8240    -1.5230 ca         1 AM7      -0.120000
      8 C10         10.6100     0.6550    -1.9330 ca         1 AM7      -0.108500
      9 C13          8.3180    -0.7240     0.1020 cd         1 AM7       0.509900
     10 C15          1.3910    -0.1070     0.7570 ca         1 AM7       0.049100
     11 C17          3.4090    -0.0380    -0.5600 ca         1 AM7      -0.163000
     12 C20          2.1240    -0.5300     1.8530 ca         1 AM7      -0.107000
     13 C21         -2.1780    -0.4450     0.3720 ca         1 AM7      -0.153300
     14 C22         -2.6410     0.8290     0.7820 ca         1 AM7      -0.171000
     15 C24         -4.9130     0.1500     0.2690 ca         1 AM7       0.152100
     16 C26         -3.0970    -1.4130    -0.0880 ca         1 AM7       0.434600
     17 C28         -0.4440    -2.0680    -0.0280 ca         1 AM7      -0.339300
     18 C1         -11.4730     0.5920     0.5250 c6         1 AM7       0.126300
     19 C2         -12.7920     1.2920     0.2550 c6         1 AM7       0.129900
     20 O1         -13.7180     0.4420    -0.3840 os         1 AM7      -0.403600
     21 C3         -13.1850    -0.0580    -1.5910 c6         1 AM7       0.129900
     22 C33         -9.6420    -0.5860    -0.5360 c3         1 AM7       0.170800
     23 C32         -8.5240     0.3600    -0.1160 c3         1 AM7      -0.083400
     24 C31         -7.1860    -0.3460    -0.1830 c3         1 AM7       0.136400
     25 O3          -6.1870     0.5580     0.2650 os         1 AM7      -0.300900
     26 C25         -4.4740    -1.0830    -0.1270 ca         1 AM7      -0.269300
     27 C23         -3.9740     1.1280     0.7350 ca         1 AM7       0.116100
     28 O2          -4.5210     2.2970     1.0960 os         1 AM7      -0.295900
     29 C35         -3.6590     3.3140     1.5680 c3         1 AM7       0.119700
     30 N4          -2.7270    -2.6470    -0.5000 nb         1 AM7      -0.684000
     31 C27         -1.4520    -2.9410    -0.4640 ca         1 AM7       0.444200
     32 C29         -0.8150    -0.8160     0.3920 ca         1 AM7       0.184100
     33 O4           0.0460     0.1190     0.8550 os         1 AM7      -0.236200
     34 C16          2.0470     0.1320    -0.4400 ca         1 AM7       0.126900
     35 F1           1.3280     0.5210    -1.4980 f          1 AM7      -0.126900
     36 C19          3.4950    -0.7030     1.7470 ca         1 AM7      -0.106000
     37 C18          4.1540    -0.4550     0.5430 ca         1 AM7       0.008200
     38 C11          5.6150    -0.5800     0.4170 cd         1 AM7      -0.223400
     39 C12          6.2910    -1.7490     0.9270 c          1 AM7       0.707700
     40 O5           5.7510    -2.6780     1.5050 o          1 AM7      -0.614500
     41 N2           7.6740    -1.7630     0.6950 n          1 AM7      -0.379300
     42 C34          8.4130    -2.9320     1.1650 c3         1 AM7       0.063300
     43 C14          6.3630     0.3850    -0.1810 cc         1 AM7       0.158600
     44 C9          11.1780     1.8280    -2.4100 ca         1 AM7      -0.126000
     45 H41        -11.4820    -1.1180    -2.3250 h1         1 AM7       0.041450
     46 H42        -12.0730    -1.7060    -0.7680 h1         1 AM7       0.041450
     47 H6          10.6830     1.3190     1.3790 ha         1 AM7       0.127500
     48 H7          11.6920     3.4050     0.5400 ha         1 AM7       0.132000
     49 H8          12.0140     3.7380    -1.8930 ha         1 AM7       0.132000
     50 H10         10.3120    -0.1200    -2.6300 ha         1 AM7       0.127500
     51 H17          3.8810     0.1410    -1.5180 ha         1 AM7       0.153000
     52 H20          1.6190    -0.7150     2.7920 ha         1 AM7       0.153000
     53 H22         -1.9280     1.5640     1.1280 ha         1 AM7       0.154000
     54 H28          0.5850    -2.4030    -0.0270 ha         1 AM7       0.153000
     55 H11        -11.6230    -0.2120     1.2680 h1         1 AM7       0.041450
     56 H12        -10.7930     1.3190     0.9730 h1         1 AM7       0.041450
     57 H21        -13.2410     1.6160     1.1950 h1         1 AM7       0.050950
     58 H22A       -12.6070     2.1870    -0.3560 h1         1 AM7       0.050950
     59 H31        -13.0190     0.7600    -2.3060 h1         1 AM7       0.050950
     60 H32        -13.9250    -0.7340    -2.0210 h1         1 AM7       0.050950
     61 H331        -9.7120    -1.4160     0.1880 h1         1 AM7       0.031200
     62 H332        -9.3740    -1.0380    -1.4960 h1         1 AM7       0.031200
     63 H321        -8.5190     1.2260    -0.7830 hc         1 AM7       0.064700
     64 H322        -8.6840     0.7260     0.9000 hc         1 AM7       0.064700
     65 H311        -7.1880    -1.2430     0.4470 h1         1 AM7       0.037200
     66 H312        -6.9730    -0.6630    -1.2100 h1         1 AM7       0.037200
     67 H25         -5.1560    -1.8440    -0.4820 ha         1 AM7       0.156000
     68 H351        -4.2900     4.1660     1.8090 h1         1 AM7       0.042367
     69 H352        -3.1210     3.0040     2.4680 h1         1 AM7       0.042367
     70 H353        -2.9330     3.6150     0.8080 h1         1 AM7       0.042367
     71 H27         -1.1700    -3.9340    -0.7970 h4         1 AM7       0.017100
     72 H19          4.0480    -1.0160     2.6200 ha         1 AM7       0.153000
     73 H341         8.8420    -2.7450     2.1480 h1         1 AM7       0.061033
     74 H342         7.7380    -3.7760     1.2320 h1         1 AM7       0.061033
     75 H343         9.2050    -3.1840     0.4690 h1         1 AM7       0.061033
     76 H14          5.8880     1.2860    -0.5560 h4         1 AM7       0.167000
     77 H301        10.0480    -1.6380    -0.7260 hc         1 AM7       0.068700
     78 H302        10.2590    -1.0720     0.9110 hc         1 AM7       0.068700
     79 H9          11.3190     1.9650    -3.4740 ha         1 AM7       0.132000
     80 C30          9.8130    -0.8080    -0.0510 c3         1 AM7      -0.070400
@<TRIPOS>BOND
     1     1     3 1   
     2     1    18 1   
     3     1    22 1   
     4     2     9 2   
     5     2    43 1   
     6     3    21 1   
     7     3    45 1   
     8     3    46 1   
     9     4     5 ar  
    10     4     8 ar  
    11     4    80 1   
    12     5     6 ar  
    13     5    47 1   
    14     6     7 ar  
    15     6    48 1   
    16     7    44 ar  
    17     7    49 1   
    18     8    44 ar  
    19     8    50 1   
    20     9    41 1   
    21     9    80 1   
    22    10    12 ar  
    23    10    33 1   
    24    10    34 ar  
    25    11    34 ar  
    26    11    37 ar  
    27    11    51 1   
    28    12    36 ar  
    29    12    52 1   
    30    13    14 ar  
    31    13    16 ar  
    32    13    32 ar  
    33    14    27 ar  
    34    14    53 1   
    35    15    25 1   
    36    15    26 ar  
    37    15    27 ar  
    38    16    26 ar  
    39    16    30 ar  
    40    17    31 ar  
    41    17    32 ar  
    42    17    54 1   
    43    18    19 1   
    44    18    55 1   
    45    18    56 1   
    46    19    20 1   
    47    19    57 1   
    48    19    58 1   
    49    20    21 1   
    50    21    59 1   
    51    21    60 1   
    52    22    23 1   
    53    22    61 1   
    54    22    62 1   
    55    23    24 1   
    56    23    63 1   
    57    23    64 1   
    58    24    25 1   
    59    24    65 1   
    60    24    66 1   
    61    26    67 1   
    62    27    28 1   
    63    28    29 1   
    64    29    68 1   
    65    29    69 1   
    66    29    70 1   
    67    30    31 ar  
    68    31    71 1   
    69    32    33 1   
    70    34    35 1   
    71    36    37 ar  
    72    36    72 1   
    73    37    38 1   
    74    38    39 1   
    75    38    43 2   
    76    39    40 2   
    77    39    41 1   
    78    41    42 1   
    79    42    73 1   
    80    42    74 1   
    81    42    75 1   
    82    43    76 1   
    83    44    79 1   
    84    77    80 1   
    85    78    80 1   
@<TRIPOS>SUBSTRUCTURE
     1 AM7         1 TEMP              0 ****  ****    0 ROOT
