@<TRIPOS>MOLECULE
AM8
   53    57     1     0     0
SMALL
No Charge or Current Charge


@<TRIPOS>ATOM
      1 CAA          6.2280    -0.7470    -0.9840 c3         1 AM8      -0.029900
      2 CAC          4.7420    -0.6890    -0.6590 ce         1 AM8      -0.291800
      3 CAD          4.1850    -0.5430     0.5620 c2         1 AM8       0.079600
      4 CAE          4.9240    -0.5280     1.8850 c3         1 AM8      -0.063900
      5 CAF          3.7220    -0.7290    -1.7040 ce         1 AM8       0.361600
      6 CAG          3.8490    -1.5700    -2.9550 c3         1 AM8      -0.166400
      7 NAH          2.5270    -0.6520    -0.9940 nu         1 AM8      -0.285700
      8 CAI          2.6890    -0.4410     0.4210 cx         1 AM8      -0.094800
      9 CAJ          1.6820    -0.9610     1.4290 cx         1 AM8      -0.019400
     10 CAK          1.7500     0.5280     1.1360 cx         1 AM8      -0.081700
     11 CAL          0.6550     1.2640     0.4260 ca         1 AM8      -0.283300
     12 CAM         -0.2390     0.8430    -0.5670 ca         1 AM8       0.048000
     13 CAN          2.1710     1.5590     2.1830 c2         1 AM8       0.607300
     14 OAO          2.9330     1.3070     3.1130 o          1 AM8      -0.631300
     15 NAP          1.4980     2.6570     1.9930 ne         1 AM8      -0.463400
     16 CAQ          0.5770     2.5250     0.9610 ca         1 AM8       0.304400
     17 CAR         -0.3740     3.4540     0.5320 ca         1 AM8      -0.188000
     18 CAS         -1.2790     3.0670    -0.4740 ca         1 AM8       0.034000
     19 CAT         -1.2130     1.7600    -1.0170 ca         1 AM8      -0.427500
     20 SAU         -2.4290     1.2300    -2.2270 sy         1 AM8       1.159600
     21 OAV         -2.9940     2.4120    -2.8890 o          1 AM8      -0.549000
     22 OAW         -1.8900     0.1010    -2.9930 o          1 AM8      -0.549000
     23 NAX         -3.6150     0.6110    -1.1660 nh         1 AM8      -0.715300
     24 CBE         -4.8300     1.4190    -0.9540 c3         1 AM8       0.174100
     25 CAY         -3.1730    -0.3030    -0.1890 ca         1 AM8       0.235000
     26 CAZ         -2.7500    -1.5970    -0.5470 ca         1 AM8      -0.064000
     27 CBA         -2.2670    -2.4830     0.4280 ca         1 AM8       0.117000
     28 ClBM        -1.7180    -4.0870    -0.0390 cl         1 AM8      -0.199000
     29 CBB         -2.2120    -2.0920     1.7750 ca         1 AM8      -0.110000
     30 CBC         -2.6470    -0.8100     2.1480 ca         1 AM8      -0.104000
     31 CBD         -3.1270     0.0780     1.1680 ca         1 AM8      -0.123000
     32 HAA1         6.6120    -1.7710    -0.8970 hc         1 AM8       0.054033
     33 HAA2         6.4330    -0.4020    -2.0050 hc         1 AM8       0.054033
     34 HAA3         6.8150    -0.1140    -0.3080 hc         1 AM8       0.054033
     35 HAE1         5.2660     0.4830     2.1320 hc         1 AM8       0.080367
     36 HAE2         4.3070    -0.8970     2.7100 hc         1 AM8       0.080367
     37 HAE3         5.8100    -1.1710     1.8440 hc         1 AM8       0.080367
     38 HAG1         4.7720    -2.1600    -2.9530 hc         1 AM8       0.085700
     39 HAG2         3.0140    -2.2720    -3.0550 hc         1 AM8       0.085700
     40 HAG3         3.8610    -0.9340    -3.8470 hc         1 AM8       0.085700
     41 HNAH         1.7060    -1.0810    -1.4090 hn         1 AM8       0.392000
     42 HAJ1         0.8210    -1.5120     1.0590 hc         1 AM8       0.102200
     43 HAJ2         2.0400    -1.3000     2.3970 hc         1 AM8       0.102200
     44 HAM         -0.2050    -0.1720    -0.9550 ha         1 AM8       0.101000
     45 HAR         -0.4250     4.4410     0.9830 ha         1 AM8       0.133000
     46 HAS         -2.0420     3.7700    -0.8070 ha         1 AM8       0.126000
     47 HBE1        -4.5770     2.3990    -0.5290 h1         1 AM8       0.055367
     48 HBE2        -5.3630     1.5710    -1.9020 h1         1 AM8       0.055367
     49 HBE3        -5.5170     0.9080    -0.2660 h1         1 AM8       0.055367
     50 HAZ         -2.7920    -1.9140    -1.5840 ha         1 AM8       0.154000
     51 HBB         -1.8350    -2.7810     2.5270 ha         1 AM8       0.129000
     52 HBC         -2.6040    -0.5010     3.1900 ha         1 AM8       0.122000
     53 HBD         -3.4390     1.0760     1.4610 ha         1 AM8       0.132000
@<TRIPOS>BOND
     1     1     2 1   
     2     1    32 1   
     3     1    33 1   
     4     1    34 1   
     5     2     3 2   
     6     2     5 1   
     7     3     4 1   
     8     3     8 1   
     9     4    35 1   
    10     4    36 1   
    11     4    37 1   
    12     5     6 1   
    13     5     7 2   
    14     6    38 1   
    15     6    39 1   
    16     6    40 1   
    17     7     8 1   
    18     7    41 1   
    19     8     9 1   
    20     8    10 1   
    21     9    10 1   
    22     9    42 1   
    23     9    43 1   
    24    10    11 1   
    25    10    13 1   
    26    11    12 ar  
    27    11    16 ar  
    28    12    19 ar  
    29    12    44 1   
    30    13    14 1   
    31    13    15 2   
    32    15    16 1   
    33    16    17 ar  
    34    17    18 ar  
    35    17    45 1   
    36    18    19 ar  
    37    18    46 1   
    38    19    20 1   
    39    20    21 2   
    40    20    22 2   
    41    20    23 1   
    42    23    24 1   
    43    23    25 1   
    44    24    47 1   
    45    24    48 1   
    46    24    49 1   
    47    25    26 ar  
    48    25    31 ar  
    49    26    27 ar  
    50    26    50 1   
    51    27    28 1   
    52    27    29 ar  
    53    29    30 ar  
    54    29    51 1   
    55    30    31 ar  
    56    30    52 1   
    57    31    53 1   
@<TRIPOS>SUBSTRUCTURE
     1 AM8         1 TEMP              0 ****  ****    0 ROOT
