@<TRIPOS>MOLECULE
AM8
   53    57     1     0     0
SMALL
abcg2


@<TRIPOS>ATOM
      1 CAA          6.2540    -0.7200    -0.8070 c3         1 AM8      -0.029900
      2 CAC          4.8010    -0.6080    -0.4910 ce         1 AM8      -0.291800
      3 CAD          4.2330    -0.3520     0.7220 c2         1 AM8       0.079600
      4 CAE          4.9920    -0.2120     1.9870 c3         1 AM8      -0.063900
      5 CAF          3.7440    -0.8040    -1.4300 ce         1 AM8       0.361600
      6 CAG          3.8680    -1.0990    -2.8690 c3         1 AM8      -0.166400
      7 NAH          2.5960    -0.6850    -0.8170 nu         1 AM8      -0.285700
      8 CAI          2.7760    -0.3590     0.5500 cx         1 AM8      -0.094800
      9 CAJ          1.7780    -0.7920     1.5880 cx         1 AM8      -0.019400
     10 CAK          1.7290     0.6170     1.1710 cx         1 AM8      -0.081700
     11 CAL          0.6820     1.2180     0.3260 ca         1 AM8      -0.283300
     12 CAM         -0.2500     0.6970    -0.5310 ca         1 AM8       0.048000
     13 CAN          2.2030     1.8000     2.0250 c2         1 AM8       0.607300
     14 OAO          2.9730     1.6790     2.9700 o          1 AM8      -0.631300
     15 NAP          1.6280     2.9320     1.5930 ne         1 AM8      -0.463400
     16 CAQ          0.7340     2.6030     0.6270 ca         1 AM8       0.304400
     17 CAR         -0.1410     3.4710    -0.0340 ca         1 AM8      -0.188000
     18 CAS         -1.0710     2.9540    -0.9190 ca         1 AM8       0.034000
     19 CAT         -1.1370     1.5820    -1.1620 ca         1 AM8      -0.427500
     20 SAU         -2.4360     0.9260    -2.1300 sy         1 AM8       1.159600
     21 OAV         -2.9760     1.9700    -2.9850 o          1 AM8      -0.549000
     22 OAW         -1.9980    -0.3300    -2.7150 o          1 AM8      -0.549000
     23 NAX         -3.6650     0.5370    -1.0440 nh         1 AM8      -0.715300
     24 CBE         -4.3330     1.6850    -0.4310 c3         1 AM8       0.174100
     25 CAY         -3.3630    -0.5580    -0.1870 ca         1 AM8       0.235000
     26 CAZ         -3.5730    -1.8480    -0.6620 ca         1 AM8      -0.064000
     27 CBA         -3.2660    -2.9220     0.1540 ca         1 AM8       0.117000
     28 CLBM        -3.5260    -4.5300    -0.4390 cl         1 AM8      -0.199000
     29 CBB         -2.7660    -2.7440     1.4350 ca         1 AM8      -0.110000
     30 CBC         -2.5750    -1.4520     1.9010 ca         1 AM8      -0.104000
     31 CBD         -2.8660    -0.3590     1.0980 ca         1 AM8      -0.123000
     32 HAA1         6.6790    -1.6390    -0.3990 hc         1 AM8       0.054033
     33 HAA2         6.4280    -0.7280    -1.8820 hc         1 AM8       0.054033
     34 HAA3         6.8140     0.1160    -0.3890 hc         1 AM8       0.054033
     35 HAE1         5.2390     0.8310     2.1850 hc         1 AM8       0.080367
     36 HAE2         4.4340    -0.5750     2.8460 hc         1 AM8       0.080367
     37 HAE3         5.9250    -0.7690     1.9170 hc         1 AM8       0.080367
     38 HAG1         4.5300    -1.9520    -3.0180 hc         1 AM8       0.085700
     39 HAG2         2.9060    -1.3100    -3.3300 hc         1 AM8       0.085700
     40 HAG3         4.3220    -0.2480    -3.3780 hc         1 AM8       0.085700
     41 HNAH         1.7030    -0.7610    -1.2810 hn         1 AM8       0.392000
     42 HAJ1         0.9880    -1.4590     1.2660 hc         1 AM8       0.102200
     43 HAJ2         2.1940    -1.0170     2.5630 hc         1 AM8       0.102200
     44 HAM         -0.3330    -0.3690    -0.7080 ha         1 AM8       0.101000
     45 HAR         -0.1100     4.5340     0.1620 ha         1 AM8       0.133000
     46 HAS         -1.7530     3.6280    -1.4210 ha         1 AM8       0.126000
     47 HBE1        -3.6680     2.3120     0.1710 h1         1 AM8       0.055367
     48 HBE2        -4.7920     2.2990    -1.2010 h1         1 AM8       0.055367
     49 HBE3        -5.1240     1.3080     0.2120 h1         1 AM8       0.055367
     50 HAZ         -3.9790    -2.0020    -1.6520 ha         1 AM8       0.154000
     51 HBB         -2.5350    -3.5950     2.0610 ha         1 AM8       0.129000
     52 HBC         -2.1880    -1.2960     2.8980 ha         1 AM8       0.122000
     53 HBD         -2.6960     0.6410     1.4730 ha         1 AM8       0.132000
@<TRIPOS>BOND
     1     1     2 1   
     2     1    32 1   
     3     1    33 1   
     4     1    34 1   
     5     2     3 2   
     6     2     5 1   
     7     3     4 1   
     8     3     8 1   
     9     4    35 1   
    10     4    36 1   
    11     4    37 1   
    12     5     6 1   
    13     5     7 2   
    14     6    38 1   
    15     6    39 1   
    16     6    40 1   
    17     7     8 1   
    18     7    41 1   
    19     8     9 1   
    20     8    10 1   
    21     9    10 1   
    22     9    42 1   
    23     9    43 1   
    24    10    11 1   
    25    10    13 1   
    26    11    12 ar  
    27    11    16 ar  
    28    12    19 ar  
    29    12    44 1   
    30    13    14 1   
    31    13    15 2   
    32    15    16 1   
    33    16    17 ar  
    34    17    18 ar  
    35    17    45 1   
    36    18    19 ar  
    37    18    46 1   
    38    19    20 1   
    39    20    21 2   
    40    20    22 2   
    41    20    23 1   
    42    23    24 1   
    43    23    25 1   
    44    24    47 1   
    45    24    48 1   
    46    24    49 1   
    47    25    26 ar  
    48    25    31 ar  
    49    26    27 ar  
    50    26    50 1   
    51    27    28 1   
    52    27    29 ar  
    53    29    30 ar  
    54    29    51 1   
    55    30    31 ar  
    56    30    52 1   
    57    31    53 1   
@<TRIPOS>SUBSTRUCTURE
     1 AM8         1 TEMP              0 ****  ****    0 ROOT
