@<TRIPOS>MOLECULE
AM9
   70    76     1     0     0
SMALL
No Charge or Current Charge


@<TRIPOS>ATOM
      1 C1           0.5640    -0.2680     0.0650 ca         1 AM9       0.435900
      2 N1          -0.5430    -1.0180     0.0300 nb         1 AM9      -0.298000
      3 C2          -1.7390    -0.3920     0.0240 ca         1 AM9       0.321500
      4 C3          -1.7720     1.0160     0.0650 ca         1 AM9      -0.379600
      5 C4          -0.5520     1.7120     0.1130 ca         1 AM9       0.233900
      6 N2           0.6240     1.0690     0.1170 nb         1 AM9      -0.252000
      7 N3           1.7470    -0.9930     0.0990 nu         1 AM9      -0.904900
      8 C5           3.1080    -0.6640     0.0270 ca         1 AM9       0.250000
      9 C6           4.0470    -1.5390     0.6010 ca         1 AM9      -0.091500
     10 C7           5.4240    -1.2540     0.5420 ca         1 AM9      -0.146500
     11 C8           5.8920    -0.0930    -0.1010 ca         1 AM9       0.293000
     12 C9           4.9520     0.7770    -0.6880 ca         1 AM9      -0.146500
     13 C10          3.5740     0.4930    -0.6290 ca         1 AM9      -0.091500
     14 N4          -2.9660    -1.0480    -0.0180 na         1 AM9      -0.209100
     15 C11         -4.1660    -0.3560    -0.0190 cc         1 AM9       0.521400
     16 N5          -4.2420     1.0220     0.0200 n          1 AM9      -0.236500
     17 C12         -3.0620     1.7700     0.0630 c          1 AM9       0.619600
     18 C13         -3.2380    -2.3880    -0.0640 ca         1 AM9      -0.065200
     19 C14         -4.6080    -2.4680    -0.0910 ca         1 AM9       0.098400
     20 N6          -5.2100    -1.2090    -0.0640 nd         1 AM9      -0.593100
     21 C15         -2.4160    -3.5280    -0.0850 ca         1 AM9      -0.077000
     22 C16         -3.0480    -4.7880    -0.1350 ca         1 AM9      -0.113000
     23 C17         -4.4590    -4.8810    -0.1630 ca         1 AM9      -0.116000
     24 C18         -5.2520    -3.7130    -0.1410 ca         1 AM9      -0.066000
     25 O1          -3.0750     2.9920     0.0990 o          1 AM9      -0.511000
     26 C19         -5.5300     1.6570     0.0140 ca         1 AM9       0.045600
     27 C20         -6.1290     2.0390     1.2390 ca         1 AM9      -0.039300
     28 C21         -7.3260     2.7790     1.2280 ca         1 AM9      -0.112500
     29 C22         -7.9050     3.1750     0.0130 ca         1 AM9      -0.092000
     30 C23         -7.2800     2.8500    -1.2000 ca         1 AM9      -0.112500
     31 C24         -6.0830     2.1100    -1.2090 ca         1 AM9      -0.039300
     32 C25         -5.4080     1.7930    -2.5410 c3         1 AM9      -0.049300
     33 C26         -5.5050     1.6440     2.5750 c3         1 AM9      -0.049300
     34 N7           7.2800     0.1760    -0.1490 nh         1 AM9      -0.786400
     35 C27          8.2280    -0.8450    -0.7020 c6         1 AM9       0.197300
     36 C28          9.6930    -0.6450    -0.1920 c6         1 AM9       0.156800
     37 N8          10.2010     0.7430    -0.4130 n3         1 AM9      -0.714600
     38 C29          9.2700     1.7270     0.2190 c6         1 AM9       0.156800
     39 C30          7.7960     1.5780    -0.2820 c6         1 AM9       0.197300
     40 C31         11.6010     0.9170     0.0300 c3         1 AM9       0.152100
     41 H4          -0.5070     2.8000     0.1510 h4         1 AM9       0.048100
     42 HN3          1.5710    -1.9800     0.2850 hn         1 AM9       0.514000
     43 H6           3.7110    -2.4400     1.1070 ha         1 AM9       0.125000
     44 H7           6.1290    -1.9340     1.0100 ha         1 AM9       0.118500
     45 H9           5.2810     1.6710    -1.2100 ha         1 AM9       0.118500
     46 H10          2.8790     1.1690    -1.1170 ha         1 AM9       0.125000
     47 H15         -1.3320    -3.4630    -0.0640 ha         1 AM9       0.137000
     48 H16         -2.4460    -5.6940    -0.1520 ha         1 AM9       0.114000
     49 H17         -4.9370    -5.8570    -0.2020 ha         1 AM9       0.115000
     50 H18         -6.3370    -3.7730    -0.1630 ha         1 AM9       0.132000
     51 H21         -7.8070     3.0580     2.1630 ha         1 AM9       0.115000
     52 H22         -8.8280     3.7500     0.0130 ha         1 AM9       0.114000
     53 H23         -7.7260     3.1840    -2.1340 ha         1 AM9       0.115000
     54 H25         -5.2490     0.7140    -2.6560 hc         1 AM9       0.046700
     55 H25A        -6.0120     2.1260    -3.3930 hc         1 AM9       0.046700
     56 H25B        -4.4330     2.2880    -2.6160 hc         1 AM9       0.046700
     57 H26         -4.5330     2.1330     2.7160 hc         1 AM9       0.046700
     58 H26A        -6.1400     1.9270     3.4220 hc         1 AM9       0.046700
     59 H26B        -5.3490     0.5600     2.6330 hc         1 AM9       0.046700
     60 H27          7.9080    -1.8620    -0.4360 h1         1 AM9       0.044950
     61 H27A         8.2290    -0.7860    -1.8000 h1         1 AM9       0.044950
     62 H28          9.7230    -0.8900     0.8800 h1         1 AM9       0.040700
     63 H28A        10.3410    -1.3730    -0.7030 h1         1 AM9       0.040700
     64 H29          9.2770     1.6030     1.3120 h1         1 AM9       0.040700
     65 H29A         9.6040     2.7550     0.0130 h1         1 AM9       0.040700
     66 H30          7.7500     1.8910    -1.3360 h1         1 AM9       0.044950
     67 H30A         7.1660     2.2710     0.2940 h1         1 AM9       0.044950
     68 H31         12.2620     0.2090    -0.4880 h1         1 AM9       0.032700
     69 H31A        11.9540     1.9330    -0.1890 h1         1 AM9       0.032700
     70 H31B        11.6950     0.7460     1.1120 h1         1 AM9       0.032700
@<TRIPOS>BOND
     1     1     2 ar  
     2     1     6 ar  
     3     1     7 1   
     4     2     3 ar  
     5     3     4 ar  
     6     3    14 1   
     7     4     5 ar  
     8     4    17 1   
     9     5     6 ar  
    10     5    41 1   
    11     7     8 1   
    12     7    42 1   
    13     8     9 ar  
    14     8    13 ar  
    15     9    10 ar  
    16     9    43 1   
    17    10    11 ar  
    18    10    44 1   
    19    11    12 ar  
    20    11    34 1   
    21    12    13 ar  
    22    12    45 1   
    23    13    46 1   
    24    14    15 1   
    25    14    18 1   
    26    15    16 1   
    27    15    20 2   
    28    16    17 1   
    29    16    26 1   
    30    17    25 2   
    31    18    19 ar  
    32    18    21 ar  
    33    19    20 1   
    34    19    24 ar  
    35    21    22 ar  
    36    21    47 1   
    37    22    23 ar  
    38    22    48 1   
    39    23    24 ar  
    40    23    49 1   
    41    24    50 1   
    42    26    27 ar  
    43    26    31 ar  
    44    27    28 ar  
    45    27    33 1   
    46    28    29 ar  
    47    28    51 1   
    48    29    30 ar  
    49    29    52 1   
    50    30    31 ar  
    51    30    53 1   
    52    31    32 1   
    53    32    54 1   
    54    32    55 1   
    55    32    56 1   
    56    33    57 1   
    57    33    58 1   
    58    33    59 1   
    59    34    35 1   
    60    34    39 1   
    61    35    36 1   
    62    35    60 1   
    63    35    61 1   
    64    36    37 1   
    65    36    62 1   
    66    36    63 1   
    67    37    38 1   
    68    37    40 1   
    69    38    39 1   
    70    38    64 1   
    71    38    65 1   
    72    39    66 1   
    73    39    67 1   
    74    40    68 1   
    75    40    69 1   
    76    40    70 1   
@<TRIPOS>SUBSTRUCTURE
     1 AM9         1 TEMP              0 ****  ****    0 ROOT
