@<TRIPOS>MOLECULE
AM9
   70    76     1     0     0
SMALL
abcg2


@<TRIPOS>ATOM
      1 C1           0.6060    -0.3820    -0.0850 ca         1 AM9       0.435900
      2 N1          -0.5500    -1.0640    -0.1120 nb         1 AM9      -0.298000
      3 C2          -1.6450    -0.3500    -0.0670 ca         1 AM9       0.321500
      4 C3          -1.6570     1.0470     0.0080 ca         1 AM9      -0.379600
      5 C4          -0.3970     1.6390     0.0360 ca         1 AM9       0.233900
      6 N2           0.7210     0.9520    -0.0090 nb         1 AM9      -0.252000
      7 N3           1.7130    -1.1370    -0.1310 nu         1 AM9      -0.904900
      8 C5           3.0620    -0.7420    -0.1070 ca         1 AM9       0.250000
      9 C6           3.9780    -1.6050     0.4930 ca         1 AM9      -0.091500
     10 C7           5.3260    -1.3090     0.5210 ca         1 AM9      -0.146500
     11 C8           5.8260    -0.1290    -0.0500 ca         1 AM9       0.293000
     12 C9           4.8970     0.7180    -0.6630 ca         1 AM9      -0.146500
     13 C10          3.5420     0.4220    -0.6930 ca         1 AM9      -0.091500
     14 N4          -2.8580    -0.9860    -0.0910 na         1 AM9      -0.209100
     15 C11         -4.0520    -0.2980    -0.0420 cc         1 AM9       0.521400
     16 N5          -4.0520     1.0680     0.0290 n          1 AM9      -0.236500
     17 C12         -2.8850     1.8210     0.0560 c          1 AM9       0.619600
     18 C13         -3.1930    -2.3360    -0.1570 ca         1 AM9      -0.065200
     19 C14         -4.5950    -2.3420    -0.1420 ca         1 AM9       0.098400
     20 N6          -5.0960    -1.0550    -0.0700 nd         1 AM9      -0.593100
     21 C15         -2.4390    -3.4970    -0.2240 ca         1 AM9      -0.077000
     22 C16         -3.1460    -4.6910    -0.2770 ca         1 AM9      -0.113000
     23 C17         -4.5430    -4.7160    -0.2630 ca         1 AM9      -0.116000
     24 C18         -5.2850    -3.5460    -0.1960 ca         1 AM9      -0.066000
     25 O1          -2.9300     3.0330     0.1150 o          1 AM9      -0.511000
     26 C19         -5.3160     1.7400     0.0770 ca         1 AM9       0.045600
     27 C20         -5.8750     2.0150     1.3220 ca         1 AM9      -0.039300
     28 C21         -7.1000     2.6750     1.3490 ca         1 AM9      -0.112500
     29 C22         -7.7320     3.0420     0.1710 ca         1 AM9      -0.092000
     30 C23         -7.1530     2.7500    -1.0550 ca         1 AM9      -0.112500
     31 C24         -5.9300     2.0890    -1.1230 ca         1 AM9      -0.039300
     32 C25         -5.3040     1.7550    -2.4440 c3         1 AM9      -0.049300
     33 C26         -5.1850     1.6160     2.5920 c3         1 AM9      -0.049300
     34 N7           7.1830     0.1770     0.0290 nh         1 AM9      -0.786400
     35 C27          8.1300    -0.8800    -0.2970 c6         1 AM9       0.197300
     36 C28          9.5210    -0.5270     0.1910 c6         1 AM9       0.156800
     37 N8           9.9520     0.7390    -0.3640 n3         1 AM9      -0.714600
     38 C29          9.0200     1.7800     0.0130 c6         1 AM9       0.156800
     39 C30          7.6170     1.4650    -0.4730 c6         1 AM9       0.197300
     40 C31         11.3040     1.0650     0.0290 c3         1 AM9       0.152100
     41 H4          -0.3070     2.7170     0.1010 h4         1 AM9       0.048100
     42 HN3          1.5400    -2.1310    -0.1090 hn         1 AM9       0.514000
     43 H6           3.6320    -2.5200     0.9580 ha         1 AM9       0.125000
     44 H7           5.9890    -2.0010     1.0250 ha         1 AM9       0.118500
     45 H9           5.2160     1.6280    -1.1510 ha         1 AM9       0.118500
     46 H10          2.8730     1.1060    -1.1920 ha         1 AM9       0.125000
     47 H15         -1.3610    -3.4800    -0.2350 ha         1 AM9       0.137000
     48 H16         -2.5980    -5.6220    -0.3310 ha         1 AM9       0.114000
     49 H17         -5.0560    -5.6680    -0.3050 ha         1 AM9       0.115000
     50 H18         -6.3660    -3.5650    -0.1850 ha         1 AM9       0.132000
     51 H21         -7.5610     2.8990     2.3030 ha         1 AM9       0.115000
     52 H22         -8.6830     3.5570     0.2070 ha         1 AM9       0.114000
     53 H23         -7.6540     3.0340    -1.9720 ha         1 AM9       0.115000
     54 H25         -5.2070     0.6760    -2.5790 hc         1 AM9       0.046700
     55 H25A        -5.9110     2.1350    -3.2640 hc         1 AM9       0.046700
     56 H25B        -4.3070     2.1870    -2.5470 hc         1 AM9       0.046700
     57 H26         -4.2500     2.1610     2.7320 hc         1 AM9       0.046700
     58 H26A        -5.8170     1.8280     3.4540 hc         1 AM9       0.046700
     59 H26B        -4.9480     0.5510     2.6110 hc         1 AM9       0.046700
     60 H27          7.8280    -1.8140     0.1700 h1         1 AM9       0.044950
     61 H27A         8.1580    -1.0520    -1.3830 h1         1 AM9       0.044950
     62 H28          9.5260    -0.5140     1.2950 h1         1 AM9       0.040700
     63 H28A        10.2110    -1.3130    -0.1250 h1         1 AM9       0.040700
     64 H29          8.9970     1.9270     1.1070 h1         1 AM9       0.040700
     65 H29A         9.3380     2.7260    -0.4320 h1         1 AM9       0.040700
     66 H30          7.5900     1.5060    -1.5730 h1         1 AM9       0.044950
     67 H30A         6.9530     2.2460    -0.1000 h1         1 AM9       0.044950
     68 H31         11.9870     0.2760    -0.2890 h1         1 AM9       0.032700
     69 H31A        11.6180     1.9930    -0.4510 h1         1 AM9       0.032700
     70 H31B        11.4210     1.1930     1.1160 h1         1 AM9       0.032700
@<TRIPOS>BOND
     1     1     2 ar  
     2     1     6 ar  
     3     1     7 1   
     4     2     3 ar  
     5     3     4 ar  
     6     3    14 1   
     7     4     5 ar  
     8     4    17 1   
     9     5     6 ar  
    10     5    41 1   
    11     7     8 1   
    12     7    42 1   
    13     8     9 ar  
    14     8    13 ar  
    15     9    10 ar  
    16     9    43 1   
    17    10    11 ar  
    18    10    44 1   
    19    11    12 ar  
    20    11    34 1   
    21    12    13 ar  
    22    12    45 1   
    23    13    46 1   
    24    14    15 1   
    25    14    18 1   
    26    15    16 1   
    27    15    20 2   
    28    16    17 1   
    29    16    26 1   
    30    17    25 2   
    31    18    19 ar  
    32    18    21 ar  
    33    19    20 1   
    34    19    24 ar  
    35    21    22 ar  
    36    21    47 1   
    37    22    23 ar  
    38    22    48 1   
    39    23    24 ar  
    40    23    49 1   
    41    24    50 1   
    42    26    27 ar  
    43    26    31 ar  
    44    27    28 ar  
    45    27    33 1   
    46    28    29 ar  
    47    28    51 1   
    48    29    30 ar  
    49    29    52 1   
    50    30    31 ar  
    51    30    53 1   
    52    31    32 1   
    53    32    54 1   
    54    32    55 1   
    55    32    56 1   
    56    33    57 1   
    57    33    58 1   
    58    33    59 1   
    59    34    35 1   
    60    34    39 1   
    61    35    36 1   
    62    35    60 1   
    63    35    61 1   
    64    36    37 1   
    65    36    62 1   
    66    36    63 1   
    67    37    38 1   
    68    37    40 1   
    69    38    39 1   
    70    38    64 1   
    71    38    65 1   
    72    39    66 1   
    73    39    67 1   
    74    40    68 1   
    75    40    69 1   
    76    40    70 1   
@<TRIPOS>SUBSTRUCTURE
     1 AM9         1 TEMP              0 ****  ****    0 ROOT
