@<TRIPOS>MOLECULE
AMB
   17    16     1     0     0
SMALL
No Charge or Current Charge


@<TRIPOS>ATOM
      1 CB          -0.3280    -0.8970     0.2670 c2         1 AMB      -0.224200
      2 CG          -0.1910    -0.8510     1.6020 c2         1 AMB      -0.100900
      3 OD           0.0520     0.3150     2.2760 os         1 AMB      -0.331100
      4 CE           0.1920     0.2590     3.7050 c3         1 AMB       0.154900
      5 C            0.4280    -0.1140    -2.0810 c          1 AMB       0.729000
      6 O           -0.1650    -0.8960    -2.8180 o          1 AMB      -0.728500
      7 OXT          1.5100     0.3830    -2.3700 o          1 AMB      -0.728500
      8 N           -1.6030     0.9030    -0.7430 n8         1 AMB      -0.983200
      9 CA          -0.2390     0.2800    -0.6910 c3         1 AMB       0.044700
     10 HB          -0.5160    -1.8550    -0.2200 ha         1 AMB       0.165000
     11 HG          -0.2640    -1.7420     2.2290 h4         1 AMB       0.136000
     12 HE3          0.3830     1.2610     4.1090 h1         1 AMB       0.017033
     13 HE2         -0.7240    -0.1300     4.1690 h1         1 AMB       0.017033
     14 HE1          1.0290    -0.3910     3.9880 h1         1 AMB       0.017033
     15 H2          -2.2570     0.2170    -1.1380 hn         1 AMB       0.374500
     16 H1          -1.9300     1.0270     0.2220 hn         1 AMB       0.374500
     17 HA           0.4350     1.0250    -0.2460 h1         1 AMB       0.065700
@<TRIPOS>BOND
     1     1     2 2   
     2     1     9 1   
     3     1    10 1   
     4     2     3 1   
     5     2    11 1   
     6     3     4 1   
     7     4    12 1   
     8     4    13 1   
     9     4    14 1   
    10     5     6 1   
    11     5     7 1   
    12     5     9 1   
    13     8     9 1   
    14     8    15 1   
    15     8    16 1   
    16     9    17 1   
@<TRIPOS>SUBSTRUCTURE
     1 AMB         1 TEMP              0 ****  ****    0 ROOT
