@<TRIPOS>MOLECULE
AMB
   17    16     1     0     0
SMALL
abcg2


@<TRIPOS>ATOM
      1 CB          -0.5090    -0.8080     0.3700 c2         1 AMB      -0.224200
      2 CG          -0.0680    -0.8310     1.6250 c2         1 AMB      -0.100900
      3 OD           0.5370     0.2220     2.2210 os         1 AMB      -0.331100
      4 CE           0.4660     0.2280     3.6330 c3         1 AMB       0.154900
      5 C            0.4570     0.0190    -1.7470 c          1 AMB       0.729000
      6 O           -0.0640    -0.5560    -2.7250 o          1 AMB      -0.728500
      7 OXT          1.6590     0.3020    -1.5990 o          1 AMB      -0.728500
      8 N           -1.8170     0.7080    -1.0730 n8         1 AMB      -0.983200
      9 CA          -0.4890     0.3660    -0.5700 c3         1 AMB       0.044700
     10 HB          -0.9300    -1.7330    -0.0110 ha         1 AMB       0.165000
     11 HG          -0.1530    -1.7320     2.2310 h4         1 AMB       0.136000
     12 HE3          1.1190     1.0220     3.9910 h1         1 AMB       0.017033
     13 HE2         -0.5500     0.4230     3.9870 h1         1 AMB       0.017033
     14 HE1          0.8040    -0.7210     4.0600 h1         1 AMB       0.017033
     15 H2          -2.0780     0.0110    -1.7600 hn         1 AMB       0.374500
     16 H1          -2.4930     0.6410    -0.3230 hn         1 AMB       0.374500
     17 HA          -0.0800     1.2350    -0.0500 h1         1 AMB       0.065700
@<TRIPOS>BOND
     1     1     2 2   
     2     1     9 1   
     3     1    10 1   
     4     2     3 1   
     5     2    11 1   
     6     3     4 1   
     7     4    12 1   
     8     4    13 1   
     9     4    14 1   
    10     5     6 1   
    11     5     7 1   
    12     5     9 1   
    13     8     9 1   
    14     8    15 1   
    15     8    16 1   
    16     9    17 1   
@<TRIPOS>SUBSTRUCTURE
     1 AMB         1 TEMP              0 ****  ****    0 ROOT
