@<TRIPOS>MOLECULE
AMC
   24    24     1     0     0
SMALL
bcc


@<TRIPOS>ATOM
      1 C1           0.5130     0.2370     0.2390 c6         1 AMC      -0.093700
      2 C2           0.0380    -1.1170    -0.2900 c6         1 AMC      -0.074900
      3 C3          -1.3790    -1.4360     0.1780 c6         1 AMC      -0.072400
      4 C4          -2.3560    -0.3320    -0.2070 c6         1 AMC      -0.080400
      5 C5          -1.8880     1.0200     0.3180 c6         1 AMC      -0.072400
      6 C6          -0.4720     1.3400    -0.1490 c6         1 AMC      -0.074900
      7 CM           1.8950     0.6110    -0.2670 c3         1 AMC       0.129800
      8 N            2.9410    -0.3300     0.2180 nz         1 AMC      -0.835600
      9 H1           0.5520     0.1920     1.3360 hc         1 AMC       0.066700
     10 H21          0.0660    -1.0990    -1.3870 hc         1 AMC       0.044700
     11 H22          0.7060    -1.9250     0.0250 hc         1 AMC       0.044700
     12 H31         -1.3810    -1.5620     1.2660 hc         1 AMC       0.058950
     13 H32         -1.6990    -2.3920    -0.2440 hc         1 AMC       0.058950
     14 H41         -3.3540    -0.5610     0.1740 hc         1 AMC       0.059700
     15 H42         -2.4430    -0.2890    -1.2980 hc         1 AMC       0.059700
     16 H51         -1.9140     1.0140     1.4130 hc         1 AMC       0.058950
     17 H52         -2.5690     1.8110    -0.0050 hc         1 AMC       0.058950
     18 H61         -0.1440     2.2940     0.2710 hc         1 AMC       0.044700
     19 H62         -0.4650     1.4600    -1.2390 hc         1 AMC       0.044700
     20 HM1          2.1910     1.5990     0.0820 hx         1 AMC       0.103700
     21 HM2          1.9440     0.5980    -1.3550 hx         1 AMC       0.103700
     22 HN1          2.9970    -0.3400     1.2360 hn         1 AMC       0.455800
     23 HN2          3.8650    -0.0720    -0.1270 hn         1 AMC       0.455800
     24 HN3          2.7730    -1.2890    -0.0830 hn         1 AMC       0.455800
@<TRIPOS>BOND
     1     1     2 1   
     2     1     6 1   
     3     1     7 1   
     4     1     9 1   
     5     2     3 1   
     6     2    10 1   
     7     2    11 1   
     8     3     4 1   
     9     3    12 1   
    10     3    13 1   
    11     4     5 1   
    12     4    14 1   
    13     4    15 1   
    14     5     6 1   
    15     5    16 1   
    16     5    17 1   
    17     6    18 1   
    18     6    19 1   
    19     7     8 1   
    20     7    20 1   
    21     7    21 1   
    22     8    22 1   
    23     8    23 1   
    24     8    24 1   
@<TRIPOS>SUBSTRUCTURE
     1 AMC         1 TEMP              0 ****  ****    0 ROOT
