@<TRIPOS>MOLECULE
AMC
   24    24     1     0     0
SMALL
No Charge or Current Charge


@<TRIPOS>ATOM
      1 C1           0.5240     0.2630     0.2340 c6         1 AMC      -0.093700
      2 C2           0.0470    -1.1230    -0.2930 c6         1 AMC      -0.074900
      3 C3          -1.3860    -1.4540     0.1910 c6         1 AMC      -0.072400
      4 C4          -2.3870    -0.3420    -0.2070 c6         1 AMC      -0.080400
      5 C5          -1.9220     1.0370     0.3200 c6         1 AMC      -0.072400
      6 C6          -0.4900     1.3690    -0.1690 c6         1 AMC      -0.074900
      7 CM           1.9440     0.6320    -0.2650 c3         1 AMC       0.101600
      8 N            2.9740    -0.3590     0.2130 nz         1 AMC      -0.973000
      9 H1           0.5760     0.2260     1.3320 hc         1 AMC       0.066700
     10 H21          0.0760    -1.1330    -1.3920 hc         1 AMC       0.044700
     11 H22          0.7270    -1.9170     0.0440 hc         1 AMC       0.044700
     12 H31         -1.3880    -1.5790     1.2830 hc         1 AMC       0.058950
     13 H32         -1.7100    -2.4150    -0.2310 hc         1 AMC       0.058950
     14 H41         -3.3840    -0.5770     0.1880 hc         1 AMC       0.059700
     15 H42         -2.4850    -0.3070    -1.3010 hc         1 AMC       0.059700
     16 H51         -1.9490     1.0430     1.4190 hc         1 AMC       0.058950
     17 H52         -2.6200     1.8180    -0.0120 hc         1 AMC       0.058950
     18 H61         -0.1770     2.3350     0.2490 hc         1 AMC       0.044700
     19 H62         -0.4960     1.4910    -1.2610 hc         1 AMC       0.044700
     20 HM1          2.2180     1.6280     0.1030 hx         1 AMC       0.103700
     21 HM2          1.9610     0.6660    -1.3600 hx         1 AMC       0.103700
     22 HN1          3.0050    -0.4500     1.2400 hn         1 AMC       0.511000
     23 HN2          3.9350    -0.1070    -0.0680 hn         1 AMC       0.511000
     24 HN3          2.8250    -1.3120    -0.1510 hn         1 AMC       0.511000
@<TRIPOS>BOND
     1     1     2 1   
     2     1     6 1   
     3     1     7 1   
     4     1     9 1   
     5     2     3 1   
     6     2    10 1   
     7     2    11 1   
     8     3     4 1   
     9     3    12 1   
    10     3    13 1   
    11     4     5 1   
    12     4    14 1   
    13     4    15 1   
    14     5     6 1   
    15     5    16 1   
    16     5    17 1   
    17     6    18 1   
    18     6    19 1   
    19     7     8 1   
    20     7    20 1   
    21     7    21 1   
    22     8    22 1   
    23     8    23 1   
    24     8    24 1   
@<TRIPOS>SUBSTRUCTURE
     1 AMC         1 TEMP              0 ****  ****    0 ROOT
