@<TRIPOS>MOLECULE
AMD
   47    49     1     0     0
SMALL
abcg2


@<TRIPOS>ATOM
      1 P            2.6620     2.4000    -0.6180 p5         1 AMD       1.417800
      2 O1P          3.0730     2.9180     0.7160 o          1 AMD      -0.811500
      3 O2P          3.4230     2.6270    -1.8740 o          1 AMD      -0.811500
      4 O3P          2.3680     0.7280    -0.4770 os         1 AMD      -0.561500
      5 O5           1.1090     2.7900    -0.9330 os         1 AMD      -0.575400
      6 C5           0.1770     2.8340     0.1270 c3         1 AMD       0.220600
      7 C4          -1.1840     3.2100    -0.4100 c5         1 AMD       0.157300
      8 O4          -1.6970     2.2040    -1.2780 os         1 AMD      -0.411000
      9 C1          -2.8910     1.6670    -0.7890 c5         1 AMD       0.322300
     10 N9          -2.6640     0.3650    -0.1810 na         1 AMD      -0.312300
     11 C9          -2.6810    -0.8240    -0.8530 ca         1 AMD       0.127500
     12 N3          -3.0070    -1.0410    -2.1270 nb         1 AMD      -0.247000
     13 C2          -2.9490    -2.3270    -2.4320 ca         1 AMD       0.169900
     14 N1          -2.6260    -3.3490    -1.6470 nb         1 AMD      -0.326000
     15 C6          -2.2820    -3.1190    -0.3730 ca         1 AMD       0.449900
     16 N6          -1.9600    -4.1480     0.4210 nv         1 AMD      -1.026900
     17 C7          -2.3170    -1.7850     0.0800 ca         1 AMD      -0.070600
     18 N7          -2.0930    -1.2060     1.3010 nc         1 AMD      -0.494100
     19 C8          -2.2970     0.0600     1.1020 cd         1 AMD       0.371700
     20 C10         -3.4480     2.6940     0.1820 c5         1 AMD      -0.164400
     21 C3          -2.1990     3.3860     0.7280 c5         1 AMD       0.125300
     22 O3          -2.3550     4.7500     1.0100 oh         1 AMD      -0.707000
     23 N            3.9470    -2.4520     0.0990 n8         1 AMD      -0.996200
     24 CA           2.8250    -1.5510    -0.0800 c3         1 AMD       0.103500
     25 CB           1.7060    -1.7110     0.9570 c3         1 AMD      -0.223400
     26 CG           1.0270    -3.0900     0.9320 c          1 AMD       0.708000
     27 OD1          1.2140    -3.8200    -0.0560 o          1 AMD      -0.752000
     28 OD2          0.2950    -3.3520     1.9180 o          1 AMD      -0.752000
     29 C            3.3250    -0.1210    -0.1180 c          1 AMD       0.656100
     30 O            4.4490     0.2180     0.1490 o          1 AMD      -0.528000
     31 H5'1         0.1130     1.8660     0.6430 h1         1 AMD       0.032700
     32 H5'2         0.4630     3.5810     0.8740 h1         1 AMD       0.032700
     33 H4          -1.1130     4.1460    -0.9770 h1         1 AMD       0.079700
     34 H1          -3.5640     1.4830    -1.6270 h2         1 AMD       0.098700
     35 H2          -3.2270    -2.5890    -3.4480 h5         1 AMD       0.017100
     36 H61         -1.2790    -3.9540     1.1640 hn         1 AMD       0.510000
     37 H62         -1.8200    -5.0270    -0.0530 hn         1 AMD       0.510000
     38 H8          -2.2180     0.8120     1.8730 h5         1 AMD       0.046800
     39 H2'1        -4.0360     3.4190    -0.3840 hc         1 AMD       0.057700
     40 H2'2        -4.0920     2.2660     0.9490 hc         1 AMD       0.057700
     41 H3          -1.8410     2.8610     1.6250 h1         1 AMD       0.046700
     42 HO'3        -2.8550     4.8330     1.8280 ho         1 AMD       0.491000
     43 HA           2.3950    -1.7550    -1.0660 h1         1 AMD       0.091700
     44 HB1          2.1030    -1.5220     1.9600 hc         1 AMD       0.044200
     45 HB2          0.9200    -0.9660     0.8030 hc         1 AMD       0.044200
     46 H            4.3360    -2.3360     1.0270 hn         1 AMD       0.391000
     47 HN2          3.5820    -3.3940     0.0620 hn         1 AMD       0.391000
@<TRIPOS>BOND
     1     1     2 1   
     2     1     3 1   
     3     1     4 1   
     4     1     5 1   
     5     4    29 1   
     6     5     6 1   
     7     6     7 1   
     8     6    31 1   
     9     6    32 1   
    10     7     8 1   
    11     7    21 1   
    12     7    33 1   
    13     8     9 1   
    14     9    10 1   
    15     9    20 1   
    16     9    34 1   
    17    10    11 1   
    18    10    19 1   
    19    11    12 ar  
    20    11    17 ar  
    21    12    13 ar  
    22    13    14 ar  
    23    13    35 1   
    24    14    15 ar  
    25    15    16 1   
    26    15    17 ar  
    27    16    36 1   
    28    16    37 1   
    29    17    18 1   
    30    18    19 2   
    31    19    38 1   
    32    20    21 1   
    33    20    39 1   
    34    20    40 1   
    35    21    22 1   
    36    21    41 1   
    37    22    42 1   
    38    23    24 1   
    39    23    46 1   
    40    23    47 1   
    41    24    25 1   
    42    24    29 1   
    43    24    43 1   
    44    25    26 1   
    45    25    44 1   
    46    25    45 1   
    47    26    27 1   
    48    26    28 1   
    49    29    30 2   
@<TRIPOS>SUBSTRUCTURE
     1 AMD         1 TEMP              0 ****  ****    0 ROOT
