@<TRIPOS>MOLECULE
AMD
   47    49     1     0     0
SMALL
No Charge or Current Charge


@<TRIPOS>ATOM
      1 P            2.4860     2.0910    -1.4370 p5         1 AMD       1.417800
      2 O1P          3.0900     3.0300    -0.4460 o          1 AMD      -0.811500
      3 O2P          3.0400     2.3420    -2.8010 o          1 AMD      -0.811500
      4 O3P          2.6490     0.5440    -1.0690 os         1 AMD      -0.561500
      5 O5           0.8770     2.1720    -1.4650 os         1 AMD      -0.575400
      6 C5           0.1270     2.2320    -0.2410 c3         1 AMD       0.220600
      7 C4          -1.1590     3.0670    -0.4780 c5         1 AMD       0.157300
      8 O4          -2.1170     2.3310    -1.2910 os         1 AMD      -0.411000
      9 C1          -3.1850     1.8660    -0.4470 c5         1 AMD       0.322300
     10 N9          -2.8240     0.5750     0.1520 na         1 AMD      -0.312300
     11 C9          -2.4950    -0.5930    -0.4900 ca         1 AMD       0.127500
     12 N3          -2.3470    -0.8670    -1.8020 nb         1 AMD      -0.247000
     13 C2          -2.0060    -2.1400    -2.1090 ca         1 AMD       0.169900
     14 N1          -1.8060    -3.1560    -1.2360 nb         1 AMD      -0.326000
     15 C6          -1.9650    -2.8540     0.0610 ca         1 AMD       0.449900
     16 N6          -1.7460    -3.8700     0.9370 nv         1 AMD      -1.026900
     17 C7          -2.3160    -1.5520     0.4740 ca         1 AMD      -0.070600
     18 N7          -2.5160    -1.0620     1.7570 nc         1 AMD      -0.494100
     19 C8          -2.8320     0.2220     1.5170 cd         1 AMD       0.371700
     20 C10         -3.3870     3.0770     0.4930 c5         1 AMD      -0.164400
     21 C3          -1.9190     3.4260     0.8510 c5         1 AMD       0.125300
     22 O3          -1.7940     4.8020     1.2180 oh         1 AMD      -0.707000
     23 N            3.3060    -2.1390     1.4520 n8         1 AMD      -0.996200
     24 CA           2.7650    -1.5160     0.1950 c3         1 AMD       0.103500
     25 CB           1.4180    -2.1850    -0.1760 c3         1 AMD      -0.223400
     26 CG           1.6340    -3.6230    -0.6580 c          1 AMD       0.708000
     27 OD1          1.9170    -3.8000    -1.8320 o          1 AMD      -0.752000
     28 OD2          1.5670    -4.5220     0.1660 o          1 AMD      -0.752000
     29 C            2.6370     0.0550     0.1920 c          1 AMD       0.656100
     30 O            2.5260     0.7260     1.2120 o          1 AMD      -0.528000
     31 H5'1        -0.1400     1.2240     0.1010 h1         1 AMD       0.032700
     32 H5'2         0.7070     2.7170     0.5550 h1         1 AMD       0.032700
     33 H4          -0.8800     3.9800    -1.0210 h1         1 AMD       0.079700
     34 H1          -4.0850     1.6750    -1.0450 h2         1 AMD       0.098700
     35 H2          -1.8820    -2.3720    -3.1650 h5         1 AMD       0.017100
     36 H61         -1.6740    -3.5970     1.9130 hn         1 AMD       0.510000
     37 H62         -1.0900    -4.5890     0.6440 hn         1 AMD       0.510000
     38 H8          -3.0780     0.9470     2.2820 h5         1 AMD       0.046800
     39 H2'1        -3.8780     3.8960    -0.0470 hc         1 AMD       0.057700
     40 H2'2        -4.0050     2.8490     1.3680 hc         1 AMD       0.057700
     41 H3          -1.5650     2.7840     1.6710 h1         1 AMD       0.046700
     42 HO'3        -2.3680     4.9450     2.0060 ho         1 AMD       0.491000
     43 HA           3.4710    -1.7420    -0.6180 h1         1 AMD       0.091700
     44 HB1          0.7900    -2.1580     0.7230 hc         1 AMD       0.044200
     45 HB2          1.0120    -1.5910    -1.0040 hc         1 AMD       0.044200
     46 H            2.7410    -1.8200     2.2480 hn         1 AMD       0.391000
     47 HN2          3.1180    -3.1500     1.4160 hn         1 AMD       0.391000
@<TRIPOS>BOND
     1     1     2 1   
     2     1     3 1   
     3     1     4 1   
     4     1     5 1   
     5     4    29 1   
     6     5     6 1   
     7     6     7 1   
     8     6    31 1   
     9     6    32 1   
    10     7     8 1   
    11     7    21 1   
    12     7    33 1   
    13     8     9 1   
    14     9    10 1   
    15     9    20 1   
    16     9    34 1   
    17    10    11 1   
    18    10    19 1   
    19    11    12 ar  
    20    11    17 ar  
    21    12    13 ar  
    22    13    14 ar  
    23    13    35 1   
    24    14    15 ar  
    25    15    16 1   
    26    15    17 ar  
    27    16    36 1   
    28    16    37 1   
    29    17    18 1   
    30    18    19 2   
    31    19    38 1   
    32    20    21 1   
    33    20    39 1   
    34    20    40 1   
    35    21    22 1   
    36    21    41 1   
    37    22    42 1   
    38    23    24 1   
    39    23    46 1   
    40    23    47 1   
    41    24    25 1   
    42    24    29 1   
    43    24    43 1   
    44    25    26 1   
    45    25    44 1   
    46    25    45 1   
    47    26    27 1   
    48    26    28 1   
    49    29    30 2   
@<TRIPOS>SUBSTRUCTURE
     1 AMD         1 TEMP              0 ****  ****    0 ROOT
