@<TRIPOS>MOLECULE
AME
   24    23     1     0     0
SMALL
abcg2


@<TRIPOS>ATOM
      1 CT2         -2.4650     2.7440     0.6340 c3         1 AME      -0.179100
      2 CT1         -2.0060     1.5910    -0.2260 c          1 AME       0.604100
      3 OT          -2.4800     1.3940    -1.3390 o          1 AME      -0.630100
      4 CB           0.7570    -0.8110     0.2180 c3         1 AME      -0.065400
      5 CG           1.8070     0.1970    -0.2260 c3         1 AME       0.081600
      6 SD           3.4460    -0.3180     0.3630 ss         1 AME      -0.474000
      7 CE           4.4490     1.0230    -0.3120 c3         1 AME       0.041900
      8 C           -1.6560    -1.5860     0.0400 c          1 AME       0.717000
      9 O           -2.6240    -1.3260     0.7720 o          1 AME      -0.720000
     10 OXT         -1.3850    -2.6760    -0.5010 o          1 AME      -0.720000
     11 N           -1.0460     0.8220     0.3100 ns         1 AME      -0.461900
     12 CA          -0.6470    -0.4420    -0.2600 c3         1 AME      -0.045300
     13 HT23        -1.8180     2.9330     1.4890 hc         1 AME       0.042033
     14 HT22        -3.4670     2.5300     1.0110 hc         1 AME       0.042033
     15 HT21        -2.5290     3.6520     0.0360 hc         1 AME       0.042033
     16 HB2          0.7650    -0.9010     1.3100 hc         1 AME       0.061200
     17 HB1          1.0000    -1.7950    -0.1810 hc         1 AME       0.061200
     18 HG2          1.8250     0.2630    -1.3170 h1         1 AME       0.051200
     19 HG1          1.5880     1.1920     0.1650 h1         1 AME       0.051200
     20 HE3          4.1350     1.9880     0.0850 h1         1 AME       0.048367
     21 HE2          4.3940     1.0460    -1.4000 h1         1 AME       0.048367
     22 HE1          5.4820     0.8460    -0.0200 h1         1 AME       0.048367
     23 HN1         -0.8110     0.9820     1.2760 hn         1 AME       0.289500
     24 HA          -0.6110    -0.3190    -1.3460 h1         1 AME       0.064700
@<TRIPOS>BOND
     1     1     2 1   
     2     1    13 1   
     3     1    14 1   
     4     1    15 1   
     5     2     3 2   
     6     2    11 1   
     7     4     5 1   
     8     4    12 1   
     9     4    16 1   
    10     4    17 1   
    11     5     6 1   
    12     5    18 1   
    13     5    19 1   
    14     6     7 1   
    15     7    20 1   
    16     7    21 1   
    17     7    22 1   
    18     8     9 1   
    19     8    10 1   
    20     8    12 1   
    21    11    12 1   
    22    11    23 1   
    23    12    24 1   
@<TRIPOS>SUBSTRUCTURE
     1 AME         1 TEMP              0 ****  ****    0 ROOT
