@<TRIPOS>MOLECULE
AME
   24    23     1     0     0
SMALL
No Charge or Current Charge


@<TRIPOS>ATOM
      1 CT2         -2.0870     2.9020     0.4790 c3         1 AME      -0.179100
      2 CT1         -1.4090     1.7770    -0.2970 c          1 AME       0.604100
      3 OT          -0.9190     1.9460    -1.4050 o          1 AME      -0.630100
      4 CB           0.6710    -0.8830     0.2900 c3         1 AME      -0.065400
      5 CG           1.6400     0.2090    -0.2060 c3         1 AME       0.081600
      6 SD           3.3710    -0.1720     0.3250 ss         1 AME      -0.474000
      7 CE           4.2500     1.2840    -0.4010 c3         1 AME       0.041900
      8 C           -1.6740    -1.9200     0.2140 c          1 AME       0.717000
      9 O           -1.9910    -2.0620     1.3890 o          1 AME      -0.720000
     10 OXT         -2.0820    -2.6460    -0.6820 o          1 AME      -0.720000
     11 N           -1.3950     0.5600     0.3500 ns         1 AME      -0.461900
     12 CA          -0.7950    -0.6930    -0.1760 c3         1 AME      -0.045300
     13 HT23        -1.6120     2.9940     1.4620 hc         1 AME       0.042033
     14 HT22        -3.1050     2.5910     0.7430 hc         1 AME       0.042033
     15 HT21        -2.0830     3.8540    -0.0630 hc         1 AME       0.042033
     16 HB2          0.7040    -0.9220     1.3860 hc         1 AME       0.061200
     17 HB1          1.0280    -1.8550    -0.0710 hc         1 AME       0.061200
     18 HG2          1.6050     0.2660    -1.3020 h1         1 AME       0.051200
     19 HG1          1.3500     1.1840     0.2040 h1         1 AME       0.051200
     20 HE3          3.8480     2.2120     0.0250 h1         1 AME       0.048367
     21 HE2          4.1120     1.2980    -1.4900 h1         1 AME       0.048367
     22 HE1          5.3220     1.2200    -0.1760 h1         1 AME       0.048367
     23 HN1         -1.8470     0.5250     1.2570 hn         1 AME       0.289500
     24 HA          -0.8010    -0.6430    -1.2730 h1         1 AME       0.064700
@<TRIPOS>BOND
     1     1     2 1   
     2     1    13 1   
     3     1    14 1   
     4     1    15 1   
     5     2     3 2   
     6     2    11 1   
     7     4     5 1   
     8     4    12 1   
     9     4    16 1   
    10     4    17 1   
    11     5     6 1   
    12     5    18 1   
    13     5    19 1   
    14     6     7 1   
    15     7    20 1   
    16     7    21 1   
    17     7    22 1   
    18     8     9 1   
    19     8    10 1   
    20     8    12 1   
    21    11    12 1   
    22    11    23 1   
    23    12    24 1   
@<TRIPOS>SUBSTRUCTURE
     1 AME         1 TEMP              0 ****  ****    0 ROOT
