@<TRIPOS>MOLECULE
AMF
   50    51     1     0     0
SMALL
No Charge or Current Charge


@<TRIPOS>ATOM
      1 O4          -5.5070     1.6120     1.0390 oh         1 AMF      -0.718000
      2 C4          -4.4950     0.5940     0.9470 c6         1 AMF       0.184300
      3 C5          -3.2010     1.1000     0.2390 c5         1 AMF       0.211500
      4 C6          -2.3600     2.0800     1.0890 c5         1 AMF       0.063600
      5 S1          -0.8070     2.2540     0.1080 ss         1 AMF      -0.367200
      6 C3          -5.0590    -0.6290     0.1690 c6         1 AMF       0.139300
      7 O3          -6.2680    -1.1130     0.7850 oh         1 AMF      -0.726000
      8 C2          -3.9910    -1.7560     0.1430 c6         1 AMF       0.134300
      9 O2          -4.5460    -2.9640    -0.4360 oh         1 AMF      -0.725000
     10 C1          -2.6980    -1.2690    -0.6110 c6         1 AMF       0.430500
     11 O1          -1.6520    -2.1850    -0.4060 oh         1 AMF      -0.730000
     12 N1          -2.2160     0.0280    -0.1060 nh         1 AMF      -0.768600
     13 C7          -0.9930     0.5760    -0.4620 c2         1 AMF       0.684100
     14 N2          -0.0880    -0.1300    -1.0380 n2         1 AMF      -0.695900
     15 C8           1.2410     0.3820    -1.4070 c3         1 AMF       0.140800
     16 C9           2.3100    -0.2350    -0.4840 c3         1 AMF      -0.088400
     17 C10          3.7400     0.2460    -0.8140 c3         1 AMF      -0.072400
     18 C11          4.8130    -0.3680     0.1110 c3         1 AMF      -0.074400
     19 C12          6.2420     0.1140    -0.2180 c3         1 AMF      -0.074400
     20 C13          7.3160    -0.5000     0.7070 c3         1 AMF      -0.075400
     21 C14          8.7450    -0.0180     0.3780 c3         1 AMF      -0.074400
     22 C15          9.8160    -0.6310     1.3010 c3         1 AMF      -0.088100
     23 H4          -6.3480     1.1010     1.1430 ho         1 AMF       0.531000
     24 HA          -4.2200     0.2510     1.9570 h1         1 AMF       0.060700
     25 H5          -3.5160     1.6080    -0.6840 h1         1 AMF       0.065700
     26 H3          -5.2640    -0.3240    -0.8690 h1         1 AMF       0.053700
     27 H61C        -2.8550     3.0490     1.2310 h1         1 AMF       0.091200
     28 H62C        -2.1290     1.6510     2.0720 h1         1 AMF       0.091200
     29 HB          -6.3070    -2.0650     0.5130 ho         1 AMF       0.530000
     30 H2          -3.6960    -1.9560     1.1850 h1         1 AMF       0.066700
     31 HC          -3.7780    -3.5740    -0.5670 ho         1 AMF       0.529000
     32 H81C         1.4700     0.1170    -2.4480 h1         1 AMF       0.050200
     33 H82C         1.3030     1.4760    -1.3380 h1         1 AMF       0.050200
     34 H91C         2.0750     0.0200     0.5570 hc         1 AMF       0.050200
     35 H92C         2.2690    -1.3280    -0.5660 hc         1 AMF       0.050200
     36 H101         3.9730    -0.0070    -1.8560 hc         1 AMF       0.038200
     37 H102         3.7780     1.3400    -0.7340 hc         1 AMF       0.038200
     38 H111         4.5780    -0.1150     1.1530 hc         1 AMF       0.039200
     39 H112         4.7740    -1.4620     0.0310 hc         1 AMF       0.039200
     40 H121         6.4770    -0.1390    -1.2590 hc         1 AMF       0.036700
     41 H122         6.2810     1.2080    -0.1380 hc         1 AMF       0.036700
     42 H131         7.0810    -0.2470     1.7490 hc         1 AMF       0.037700
     43 H132         7.2770    -1.5940     0.6270 hc         1 AMF       0.037700
     44 H141         8.9840    -0.2710    -0.6620 hc         1 AMF       0.036700
     45 H142         8.7880     1.0750     0.4600 hc         1 AMF       0.036700
     46 H151         9.6250    -0.3650     2.3480 hc         1 AMF       0.031367
     47 H152         9.8230    -1.7240     1.2160 hc         1 AMF       0.031367
     48 H153        10.8120    -0.2600     1.0300 hc         1 AMF       0.031367
     49 H154        -0.8760    -1.5960    -0.6150 ho         1 AMF       0.564000
     50 H155        -2.9060    -1.1640    -1.6870 h2         1 AMF       0.036700
@<TRIPOS>BOND
     1     1     2 1   
     2     1    23 1   
     3     2     3 1   
     4     2     6 1   
     5     2    24 1   
     6     3     4 1   
     7     3    12 1   
     8     3    25 1   
     9     4     5 1   
    10     4    27 1   
    11     4    28 1   
    12     5    13 1   
    13     6     7 1   
    14     6     8 1   
    15     6    26 1   
    16     7    29 1   
    17     8     9 1   
    18     8    10 1   
    19     8    30 1   
    20     9    31 1   
    21    10    11 1   
    22    10    12 1   
    23    10    50 1   
    24    11    49 1   
    25    12    13 1   
    26    13    14 2   
    27    14    15 1   
    28    15    16 1   
    29    15    32 1   
    30    15    33 1   
    31    16    17 1   
    32    16    34 1   
    33    16    35 1   
    34    17    18 1   
    35    17    36 1   
    36    17    37 1   
    37    18    19 1   
    38    18    38 1   
    39    18    39 1   
    40    19    20 1   
    41    19    40 1   
    42    19    41 1   
    43    20    21 1   
    44    20    42 1   
    45    20    43 1   
    46    21    22 1   
    47    21    44 1   
    48    21    45 1   
    49    22    46 1   
    50    22    47 1   
    51    22    48 1   
@<TRIPOS>SUBSTRUCTURE
     1 AMF         1 TEMP              0 ****  ****    0 ROOT
