@<TRIPOS>MOLECULE
AMF
   50    51     1     0     0
SMALL
abcg2


@<TRIPOS>ATOM
      1 O4          -4.9830     1.5840     1.4180 oh         1 AMF      -0.718000
      2 C4          -4.1710     0.4780     1.1260 c6         1 AMF       0.184300
      3 C5          -2.9850     1.0000     0.3350 c5         1 AMF       0.211500
      4 C6          -2.1120     1.9620     1.1230 c5         1 AMF       0.063600
      5 S1          -0.5260     1.9530     0.2390 ss         1 AMF      -0.367200
      6 C3          -4.8960    -0.5710     0.2950 c6         1 AMF       0.139300
      7 O3          -5.9950    -1.0190     1.0480 oh         1 AMF      -0.726000
      8 C2          -3.9380    -1.7070    -0.0300 c6         1 AMF       0.134300
      9 O2          -4.6400    -2.6440    -0.8070 oh         1 AMF      -0.725000
     10 C1          -2.6990    -1.2150    -0.7760 c6         1 AMF       0.430500
     11 O1          -1.8230    -2.2860    -0.8620 oh         1 AMF      -0.730000
     12 N1          -2.1010    -0.0940    -0.0430 nh         1 AMF      -0.768600
     13 C7          -0.8680     0.3530    -0.4570 c2         1 AMF       0.684100
     14 N2          -0.1110    -0.3010    -1.2350 n2         1 AMF      -0.695900
     15 C8           1.2120     0.1860    -1.5460 c3         1 AMF       0.140800
     16 C9           2.2520    -0.3080    -0.5450 c3         1 AMF      -0.088400
     17 C10          3.6670     0.1230    -0.9090 c3         1 AMF      -0.072400
     18 C11          4.7030    -0.3360     0.1090 c3         1 AMF      -0.074400
     19 C12          6.1250     0.0790    -0.2480 c3         1 AMF      -0.074400
     20 C13          7.1530    -0.3570     0.7880 c3         1 AMF      -0.075400
     21 C14          8.5780     0.0550     0.4390 c3         1 AMF      -0.074400
     22 C15          9.5940    -0.3830     1.4850 c3         1 AMF      -0.088100
     23 H4          -5.7630     1.2730     1.8890 ho         1 AMF       0.531000
     24 HA          -3.7980    -0.0010     2.0450 h1         1 AMF       0.060700
     25 H5          -3.3620     1.5150    -0.5640 h1         1 AMF       0.065700
     26 H3          -5.2260    -0.1010    -0.6460 h1         1 AMF       0.053700
     27 H61C        -2.5130     2.9720     1.1310 h1         1 AMF       0.091200
     28 H62C        -1.9600     1.6220     2.1480 h1         1 AMF       0.091200
     29 HB          -6.5090    -1.6300     0.5100 ho         1 AMF       0.530000
     30 H2          -3.5940    -2.1510     0.9170 h1         1 AMF       0.066700
     31 HC          -4.1400    -3.4660    -0.8290 ho         1 AMF       0.529000
     32 H81C         1.4760    -0.1720    -2.5440 h1         1 AMF       0.050200
     33 H82C         1.2480     1.2840    -1.5980 h1         1 AMF       0.050200
     34 H91C         1.9970     0.0670     0.4510 hc         1 AMF       0.050200
     35 H92C         2.1990    -1.4000    -0.4890 hc         1 AMF       0.050200
     36 H101         3.9260    -0.2710    -1.8970 hc         1 AMF       0.038200
     37 H102         3.7060     1.2150    -0.9960 hc         1 AMF       0.038200
     38 H111         4.4440     0.0680     1.0940 hc         1 AMF       0.039200
     39 H112         4.6560    -1.4260     0.2070 hc         1 AMF       0.039200
     40 H121         6.3930    -0.3390    -1.2240 hc         1 AMF       0.036700
     41 H122         6.1680     1.1680    -0.3630 hc         1 AMF       0.036700
     42 H131         6.8840     0.0620     1.7640 hc         1 AMF       0.037700
     43 H132         7.1100    -1.4460     0.9070 hc         1 AMF       0.037700
     44 H141         8.8490    -0.3670    -0.5340 hc         1 AMF       0.036700
     45 H142         8.6220     1.1420     0.3200 hc         1 AMF       0.036700
     46 H151         9.3570     0.0380     2.4640 hc         1 AMF       0.031367
     47 H152         9.6090    -1.4690     1.5900 hc         1 AMF       0.031367
     48 H153        10.6030    -0.0620     1.2240 hc         1 AMF       0.031367
     49 H154        -1.0050    -1.9270    -1.2630 ho         1 AMF       0.564000
     50 H155        -2.9970    -0.8550    -1.7770 h2         1 AMF       0.036700
@<TRIPOS>BOND
     1     1     2 1   
     2     1    23 1   
     3     2     3 1   
     4     2     6 1   
     5     2    24 1   
     6     3     4 1   
     7     3    12 1   
     8     3    25 1   
     9     4     5 1   
    10     4    27 1   
    11     4    28 1   
    12     5    13 1   
    13     6     7 1   
    14     6     8 1   
    15     6    26 1   
    16     7    29 1   
    17     8     9 1   
    18     8    10 1   
    19     8    30 1   
    20     9    31 1   
    21    10    11 1   
    22    10    12 1   
    23    10    50 1   
    24    11    49 1   
    25    12    13 1   
    26    13    14 2   
    27    14    15 1   
    28    15    16 1   
    29    15    32 1   
    30    15    33 1   
    31    16    17 1   
    32    16    34 1   
    33    16    35 1   
    34    17    18 1   
    35    17    36 1   
    36    17    37 1   
    37    18    19 1   
    38    18    38 1   
    39    18    39 1   
    40    19    20 1   
    41    19    40 1   
    42    19    41 1   
    43    20    21 1   
    44    20    42 1   
    45    20    43 1   
    46    21    22 1   
    47    21    44 1   
    48    21    45 1   
    49    22    46 1   
    50    22    47 1   
    51    22    48 1   
@<TRIPOS>SUBSTRUCTURE
     1 AMF         1 TEMP              0 ****  ****    0 ROOT
