@<TRIPOS>MOLECULE
AMG
   27    27     1     0     0
SMALL
No Charge or Current Charge


@<TRIPOS>ATOM
      1 C1           1.1630    -0.7500    -0.2250 c6         1 AMG       0.356300
      2 C2           0.3130    -0.6180    -1.5370 c6         1 AMG       0.115300
      3 C3          -0.6840     0.5790    -1.4270 c6         1 AMG       0.139300
      4 C4          -1.5350     0.4910    -0.1260 c6         1 AMG       0.148300
      5 C5          -0.5660     0.3600     1.0940 c6         1 AMG       0.170300
      6 C6          -1.3280     0.2380     2.4550 c3         1 AMG       0.170600
      7 O1           2.0970     0.3430    -0.1160 os         1 AMG      -0.468000
      8 O2           1.1530    -0.4530    -2.7060 oh         1 AMG      -0.711000
      9 O3          -1.5400     0.6110    -2.5870 oh         1 AMG      -0.674000
     10 O4          -2.4550    -0.6160    -0.2350 oh         1 AMG      -0.717000
     11 O5           0.3090    -0.7920     0.9400 os         1 AMG      -0.455000
     12 O6          -0.4500     0.1730     3.5990 oh         1 AMG      -0.718000
     13 H1           1.7290    -1.6920    -0.2810 h2         1 AMG       0.065700
     14 H2          -0.2720    -1.5440    -1.6360 h1         1 AMG       0.062700
     15 H3          -0.0940     1.5080    -1.3760 h1         1 AMG       0.069700
     16 H4          -2.0970     1.4320    -0.0200 h1         1 AMG       0.050700
     17 H5           0.0520     1.2680     1.1490 h1         1 AMG       0.062700
     18 H61         -1.9990     1.1030     2.5470 h1         1 AMG       0.036700
     19 H62         -1.9600    -0.6600     2.4170 h1         1 AMG       0.036700
     20 H71          3.7330     1.1190     0.9290 h1         1 AMG       0.036700
     21 H72          2.5580     0.2410     1.9290 h1         1 AMG       0.036700
     22 H73          3.6630    -0.6550     0.8580 h1         1 AMG       0.036700
     23 HO2          1.9270     0.0870    -2.4110 ho         1 AMG       0.509000
     24 HO3         -0.9460     0.4120    -3.3500 ho         1 AMG       0.468000
     25 HO4         -2.7470    -0.5950    -1.1790 ho         1 AMG       0.521000
     26 HO6         -1.0180     0.0070     4.3880 ho         1 AMG       0.504000
     27 C7           3.0570     0.2550     0.9520 c3         1 AMG       0.144900
@<TRIPOS>BOND
     1     1     2 1   
     2     1     7 1   
     3     1    11 1   
     4     1    13 1   
     5     2     3 1   
     6     2     8 1   
     7     2    14 1   
     8     3     4 1   
     9     3     9 1   
    10     3    15 1   
    11     4     5 1   
    12     4    10 1   
    13     4    16 1   
    14     5     6 1   
    15     5    11 1   
    16     5    17 1   
    17     6    12 1   
    18     6    18 1   
    19     6    19 1   
    20     7    27 1   
    21     8    23 1   
    22     9    24 1   
    23    10    25 1   
    24    12    26 1   
    25    20    27 1   
    26    21    27 1   
    27    22    27 1   
@<TRIPOS>SUBSTRUCTURE
     1 AMG         1 TEMP              0 ****  ****    0 ROOT
