@<TRIPOS>MOLECULE
AMG
   27    27     1     0     0
SMALL
bcc


@<TRIPOS>ATOM
      1 C1           1.2050    -0.6200    -0.1710 c6         1 AMG       0.309900
      2 C2           0.3890    -0.5170    -1.4630 c6         1 AMG       0.092100
      3 C3          -0.5970     0.6410    -1.3720 c6         1 AMG       0.116100
      4 C4          -1.4670     0.4840    -0.1270 c6         1 AMG       0.125100
      5 C5          -0.5670     0.3360     1.0920 c6         1 AMG       0.147100
      6 C6          -1.3500     0.0880     2.3630 c3         1 AMG       0.147400
      7 O1           2.0440     0.4830    -0.0860 os         1 AMG      -0.421600
      8 O2           1.1960    -0.3140    -2.5970 oh         1 AMG      -0.588800
      9 O3          -1.4540     0.6880    -2.4880 oh         1 AMG      -0.611800
     10 O4          -2.3080    -0.6400    -0.2180 oh         1 AMG      -0.594800
     11 O5           0.3490    -0.7370     0.9310 os         1 AMG      -0.408600
     12 O6          -0.4750     0.2030     3.4600 oh         1 AMG      -0.595800
     13 H1           1.7940    -1.5500    -0.1700 h2         1 AMG       0.065700
     14 H2          -0.1830    -1.4500    -1.5490 h1         1 AMG       0.062700
     15 H3          -0.0350     1.5810    -1.2760 h1         1 AMG       0.069700
     16 H4          -2.0550     1.4060     0.0040 h1         1 AMG       0.050700
     17 H5          -0.0290     1.2870     1.2080 h1         1 AMG       0.062700
     18 H61         -2.1590     0.8290     2.4110 h1         1 AMG       0.036700
     19 H62         -1.8230    -0.9010     2.3230 h1         1 AMG       0.036700
     20 H71          3.6430     1.2720     0.8740 h1         1 AMG       0.036700
     21 H72          2.4930     0.4700     1.9560 h1         1 AMG       0.036700
     22 H73          3.5700    -0.4980     0.9320 h1         1 AMG       0.036700
     23 HO2          1.5650    -1.1590    -2.8700 ho         1 AMG       0.410000
     24 HO3         -0.9180     0.6250    -3.2860 ho         1 AMG       0.429000
     25 HO4         -2.7580    -0.6060    -1.0690 ho         1 AMG       0.422000
     26 HO6         -0.9800     0.0310     4.2600 ho         1 AMG       0.405000
     27 C7           2.9740     0.4200     0.9750 c3         1 AMG       0.121700
@<TRIPOS>BOND
     1     1     2 1   
     2     1     7 1   
     3     1    11 1   
     4     1    13 1   
     5     2     3 1   
     6     2     8 1   
     7     2    14 1   
     8     3     4 1   
     9     3     9 1   
    10     3    15 1   
    11     4     5 1   
    12     4    10 1   
    13     4    16 1   
    14     5     6 1   
    15     5    11 1   
    16     5    17 1   
    17     6    12 1   
    18     6    18 1   
    19     6    19 1   
    20     7    27 1   
    21     8    23 1   
    22     9    24 1   
    23    10    25 1   
    24    12    26 1   
    25    20    27 1   
    26    21    27 1   
    27    22    27 1   
@<TRIPOS>SUBSTRUCTURE
     1 AMG         1 TEMP              0 ****  ****    0 ROOT
