@<TRIPOS>MOLECULE
AMH
   25    25     1     0     0
SMALL
No Charge or Current Charge


@<TRIPOS>ATOM
      1 C1           0.0340     0.3760    -1.1860 c6         1 AMH      -0.187700
      2 C2          -1.3560     0.1060    -0.5460 c6         1 AMH      -0.053400
      3 C3          -1.3900     0.5460     0.9390 c6         1 AMH      -0.069400
      4 C4          -0.2740    -0.1470     1.7710 c6         1 AMH      -0.058700
      5 C5           1.1180     0.1240     1.1270 c6         1 AMH      -0.069400
      6 C6           1.1560    -0.3140    -0.3600 c6         1 AMH      -0.053400
      7 C7          -0.3410     0.3010     3.2640 c3         1 AMH       0.146800
      8 C8           0.0780    -0.0230    -2.6830 c          1 AMH       0.718000
      9 N            0.5820    -0.4220     4.1600 n8         1 AMH      -0.990200
     10 O1          -0.0960    -1.1960    -2.9810 o          1 AMH      -0.740000
     11 O2           0.2870     0.8570    -3.5050 o          1 AMH      -0.740000
     12 H1           0.2130     1.4600    -1.1420 hc         1 AMH       0.023700
     13 H21         -1.6030    -0.9620    -0.6170 hc         1 AMH       0.040200
     14 H22         -2.1350     0.6430    -1.1060 hc         1 AMH       0.040200
     15 H31         -2.3750     0.3100     1.3660 hc         1 AMH       0.020950
     16 H32         -1.2790     1.6370     1.0020 hc         1 AMH       0.020950
     17 H4          -0.4620    -1.2300     1.7610 hc         1 AMH       0.036700
     18 H51          1.3610     1.1930     1.2000 hc         1 AMH       0.020950
     19 H52          1.9040    -0.4120     1.6770 hc         1 AMH       0.020950
     20 H61          1.0500    -1.4070    -0.4210 hc         1 AMH       0.040200
     21 H62          2.1370    -0.0730    -0.7900 hc         1 AMH       0.040200
     22 H71         -1.3630     0.1400     3.6350 h1         1 AMH       0.017200
     23 H72         -0.1200     1.3750     3.3290 h1         1 AMH       0.017200
     24 HN1          0.4050    -0.1290     5.1280 hn         1 AMH       0.378500
     25 HN2          0.3330    -1.4180     4.1570 hn         1 AMH       0.378500
@<TRIPOS>BOND
     1     1     2 1   
     2     1     6 1   
     3     1     8 1   
     4     1    12 1   
     5     2     3 1   
     6     2    13 1   
     7     2    14 1   
     8     3     4 1   
     9     3    15 1   
    10     3    16 1   
    11     4     5 1   
    12     4     7 1   
    13     4    17 1   
    14     5     6 1   
    15     5    18 1   
    16     5    19 1   
    17     6    20 1   
    18     6    21 1   
    19     7     9 1   
    20     7    22 1   
    21     7    23 1   
    22     8    10 1   
    23     8    11 1   
    24     9    24 1   
    25     9    25 1   
@<TRIPOS>SUBSTRUCTURE
     1 AMH         1 TEMP              0 ****  ****    0 ROOT
