@<TRIPOS>MOLECULE
AMH
   25    25     1     0     0
SMALL
bcc


@<TRIPOS>ATOM
      1 C1          -0.0340     0.3770    -1.1520 c6         1 AMH      -0.187700
      2 C2          -1.3560    -0.0220    -0.5080 c6         1 AMH      -0.053400
      3 C3          -1.4220     0.3930     0.9590 c6         1 AMH      -0.069400
      4 C4          -0.2590    -0.1720     1.7710 c6         1 AMH      -0.058700
      5 C5           1.0680     0.2210     1.1270 c6         1 AMH      -0.069400
      6 C6           1.1380    -0.1830    -0.3420 c6         1 AMH      -0.053400
      7 C7          -0.3570     0.2640     3.2280 c3         1 AMH       0.146800
      8 C8           0.0810    -0.0020    -2.6420 c          1 AMH       0.928600
      9 N            0.6850    -0.3340     4.0500 n8         1 AMH      -0.879800
     10 O1          -0.9140    -0.5110    -3.1970 o          1 AMH      -0.845300
     11 O2           1.1770     0.2410    -3.1920 o          1 AMH      -0.845300
     12 H1           0.0430     1.4740    -1.0990 hc         1 AMH       0.023700
     13 H21         -1.4840    -1.1070    -0.5800 hc         1 AMH       0.040200
     14 H22         -2.1920     0.4200    -1.0550 hc         1 AMH       0.040200
     15 H31         -2.3720     0.0680     1.3940 hc         1 AMH       0.020950
     16 H32         -1.4100     1.4880     1.0320 hc         1 AMH       0.020950
     17 H4          -0.3390    -1.2690     1.7390 hc         1 AMH       0.036700
     18 H51          1.1900     1.3090     1.2090 hc         1 AMH       0.020950
     19 H52          1.8980    -0.2250     1.6800 hc         1 AMH       0.020950
     20 H61          1.1390    -1.2780    -0.4160 hc         1 AMH       0.040200
     21 H62          2.0810     0.1540    -0.7740 hc         1 AMH       0.040200
     22 H71         -1.3730     0.0410     3.5890 h1         1 AMH       0.017200
     23 H72         -0.2490     1.3530     3.2780 h1         1 AMH       0.017200
     24 HN1          0.5740    -0.0270     5.0080 hn         1 AMH       0.323300
     25 HN2          0.5510    -1.3380     4.0710 hn         1 AMH       0.323300
@<TRIPOS>BOND
     1     1     2 1   
     2     1     6 1   
     3     1     8 1   
     4     1    12 1   
     5     2     3 1   
     6     2    13 1   
     7     2    14 1   
     8     3     4 1   
     9     3    15 1   
    10     3    16 1   
    11     4     5 1   
    12     4     7 1   
    13     4    17 1   
    14     5     6 1   
    15     5    18 1   
    16     5    19 1   
    17     6    20 1   
    18     6    21 1   
    19     7     9 1   
    20     7    22 1   
    21     7    23 1   
    22     8    10 1   
    23     8    11 1   
    24     9    24 1   
    25     9    25 1   
@<TRIPOS>SUBSTRUCTURE
     1 AMH         1 TEMP              0 ****  ****    0 ROOT
