@<TRIPOS>MOLECULE
AMI
   31    32     1     0     0
SMALL
bcc


@<TRIPOS>ATOM
      1 C1          -0.4580    -1.0750    -0.2310 c5         1 AMI       0.113100
      2 C2           1.0720    -0.8210    -0.1690 c5         1 AMI       0.118500
      3 C3           1.3710     0.2160    -1.2580 c5         1 AMI       0.103100
      4 C4           0.0310     0.9350    -1.4910 c5         1 AMI       0.116100
      5 C5          -1.0350    -0.1500    -1.3060 c5         1 AMI      -0.074700
      6 C6          -1.3470    -0.9400    -2.5700 c3         1 AMI       0.142400
      7 C7           0.1760    -0.2760     1.7530 c2         1 AMI       0.813500
      8 C8           1.0550     0.7330     3.7300 c3         1 AMI       0.211100
      9 C9          -1.3780     0.4800     3.4680 c3         1 AMI       0.211100
     10 N2           1.3070    -0.3090     1.1630 n2         1 AMI      -0.731900
     11 N7          -0.0470     0.1140     3.0270 nh         1 AMI      -0.732600
     12 O3           1.8000    -0.4760    -2.4100 oh         1 AMI      -0.595800
     13 O4          -0.2000     1.9150    -0.5020 oh         1 AMI      -0.587800
     14 O6          -1.8560    -0.0560    -3.5430 oh         1 AMI      -0.599800
     15 O7          -0.9040    -0.7100     1.0800 os         1 AMI      -0.432400
     16 H1          -0.7300    -2.1210    -0.3940 h1         1 AMI       0.080700
     17 H2           1.6610    -1.7250    -0.3510 h1         1 AMI       0.093700
     18 H3           2.1430     0.9200    -0.9150 h1         1 AMI       0.059700
     19 H4          -0.0050     1.3800    -2.4960 h1         1 AMI       0.055700
     20 H5          -1.9720     0.2960    -0.9590 hc         1 AMI       0.097700
     21 H61         -0.4540    -1.4610    -2.9290 h1         1 AMI       0.029200
     22 H62         -2.0830    -1.7140    -2.3130 h1         1 AMI       0.029200
     23 H81          0.8640     0.6860     4.8010 h1         1 AMI       0.043700
     24 H82          1.9790     0.2010     3.5220 h1         1 AMI       0.043700
     25 H83          1.1920     1.7820     3.4500 h1         1 AMI       0.043700
     26 H91         -1.4050     0.4450     4.5560 h1         1 AMI       0.043700
     27 H92         -1.6600     1.4910     3.1560 h1         1 AMI       0.043700
     28 H93         -2.1250    -0.2170     3.0990 h1         1 AMI       0.043700
     29 HO3          1.8810     0.1540    -3.1320 ho         1 AMI       0.406000
     30 HO4          0.5550     2.5120    -0.4850 ho         1 AMI       0.406000
     31 HO6         -1.9490    -0.5410    -4.3680 ho         1 AMI       0.406000
@<TRIPOS>BOND
     1     1     2 1   
     2     1     5 1   
     3     1    15 1   
     4     1    16 1   
     5     2     3 1   
     6     2    10 1   
     7     2    17 1   
     8     3     4 1   
     9     3    12 1   
    10     3    18 1   
    11     4     5 1   
    12     4    13 1   
    13     4    19 1   
    14     5     6 1   
    15     5    20 1   
    16     6    14 1   
    17     6    21 1   
    18     6    22 1   
    19     7    10 2   
    20     7    11 1   
    21     7    15 1   
    22     8    11 1   
    23     8    23 1   
    24     8    24 1   
    25     8    25 1   
    26     9    11 1   
    27     9    26 1   
    28     9    27 1   
    29     9    28 1   
    30    12    29 1   
    31    13    30 1   
    32    14    31 1   
@<TRIPOS>SUBSTRUCTURE
     1 AMI         1 TEMP              0 ****  ****    0 ROOT
