@<TRIPOS>MOLECULE
AMI
   31    32     1     0     0
SMALL
No Charge or Current Charge


@<TRIPOS>ATOM
      1 C1          -0.5250    -1.0620    -0.2240 c5         1 AMI       0.136300
      2 C2           1.0160    -0.8610    -0.1860 c5         1 AMI       0.118500
      3 C3           1.3480     0.2270    -1.2740 c5         1 AMI       0.126300
      4 C4          -0.0180     0.9840    -1.4860 c5         1 AMI       0.139300
      5 C5          -1.0780    -0.1650    -1.3800 c5         1 AMI      -0.074700
      6 C6          -1.3250    -0.9650    -2.6850 c3         1 AMI       0.165600
      7 C7           0.1360    -0.1820     1.7180 c2         1 AMI       0.813500
      8 C8           1.1480     0.6700     3.8350 c3         1 AMI       0.211100
      9 C9          -1.3590     0.4580     3.5990 c3         1 AMI       0.211100
     10 N2           1.2910    -0.3280     1.1780 n2         1 AMI      -0.731900
     11 N7          -0.0160     0.2810     3.0080 nh         1 AMI      -0.732600
     12 O3           1.8300    -0.3950    -2.4760 oh         1 AMI      -0.658000
     13 O4          -0.2550     2.0040    -0.5050 oh         1 AMI      -0.650000
     14 O6          -1.8540    -0.1100    -3.7070 oh         1 AMI      -0.662000
     15 O7          -0.9870    -0.5440     1.0360 os         1 AMI      -0.455600
     16 H1          -0.8180    -2.1170    -0.3110 h1         1 AMI       0.080700
     17 H2           1.5580    -1.8010    -0.3630 h1         1 AMI       0.093700
     18 H3           2.1190     0.9180    -0.9030 h1         1 AMI       0.059700
     19 H4          -0.0490     1.4450    -2.4830 h1         1 AMI       0.055700
     20 H5          -2.0570     0.2450    -1.1070 hc         1 AMI       0.097700
     21 H61         -0.3970    -1.4410    -3.0240 h1         1 AMI       0.029200
     22 H62         -2.0390    -1.7710    -2.4680 h1         1 AMI       0.029200
     23 H81          0.8420     1.0120     4.8330 h1         1 AMI       0.043700
     24 H82          1.8280    -0.1830     3.9630 h1         1 AMI       0.043700
     25 H83          1.7030     1.4860     3.3530 h1         1 AMI       0.043700
     26 H91         -1.3040     0.8360     4.6280 h1         1 AMI       0.043700
     27 H92         -1.9440     1.1720     3.0040 h1         1 AMI       0.043700
     28 H93         -1.8960    -0.4990     3.6170 h1         1 AMI       0.043700
     29 HO3          2.1580     0.3220    -3.0630 ho         1 AMI       0.445000
     30 HO4          0.4230     2.7020    -0.6420 ho         1 AMI       0.445000
     31 HO6         -2.0030    -0.6710    -4.5010 ho         1 AMI       0.445000
@<TRIPOS>BOND
     1     1     2 1   
     2     1     5 1   
     3     1    15 1   
     4     1    16 1   
     5     2     3 1   
     6     2    10 1   
     7     2    17 1   
     8     3     4 1   
     9     3    12 1   
    10     3    18 1   
    11     4     5 1   
    12     4    13 1   
    13     4    19 1   
    14     5     6 1   
    15     5    20 1   
    16     6    14 1   
    17     6    21 1   
    18     6    22 1   
    19     7    10 2   
    20     7    11 1   
    21     7    15 1   
    22     8    11 1   
    23     8    23 1   
    24     8    24 1   
    25     8    25 1   
    26     9    11 1   
    27     9    26 1   
    28     9    27 1   
    29     9    28 1   
    30    12    29 1   
    31    13    30 1   
    32    14    31 1   
@<TRIPOS>SUBSTRUCTURE
     1 AMI         1 TEMP              0 ****  ****    0 ROOT
