@<TRIPOS>MOLECULE
AMJ
   36    36     1     0     0
SMALL
bcc


@<TRIPOS>ATOM
      1 C            0.7250     0.7970     0.6810 c          1 AMJ       0.670100
      2 N            3.0720     0.4200     0.2660 ns         1 AMJ      -0.559900
      3 O            0.9850     0.8910     1.8700 o          1 AMJ      -0.600100
      4 CA           1.7720     0.3600    -0.3440 c3         1 AMJ       0.035700
      5 CB           1.4240    -1.0350    -0.8550 c3         1 AMJ       0.115400
      6 CAA          0.8980    -3.1890    -0.1220 c3         1 AMJ       0.120700
      7 CAB          5.4660     0.6720     0.3840 c3         1 AMJ      -0.176100
      8 OAC          4.2150     0.6980    -1.6570 o          1 AMJ      -0.621100
      9 CAE         -5.0640    -0.7330    -0.7480 ca         1 AMJ      -0.120000
     10 CAF         -3.9740    -1.4640    -0.2860 ca         1 AMJ      -0.130500
     11 CAG         -5.0520     0.6510    -0.6580 ca         1 AMJ      -0.130500
     12 CAH         -2.8830    -0.8100     0.2640 ca         1 AMJ      -0.115000
     13 CAI         -3.9540     1.3050    -0.1080 ca         1 AMJ      -0.115000
     14 CAJ         -1.6710     1.2740     0.9620 c3         1 AMJ       0.148300
     15 NAL         -0.4880     1.0250     0.1630 ns         1 AMJ      -0.570900
     16 OAN          1.2770    -1.8870     0.2470 os         1 AMJ      -0.402600
     17 CAO          4.2040     0.5920    -0.4380 c          1 AMJ       0.671100
     18 CAQ         -2.8650     0.5810     0.3620 ca         1 AMJ      -0.117300
     19 HN           3.1160     0.3360     1.2700 hn         1 AMJ       0.345500
     20 HA           1.7470     1.0390    -1.2020 h1         1 AMJ       0.088700
     21 HB           0.4990    -0.9890    -1.4470 h1         1 AMJ       0.037200
     22 HBA          2.2160    -1.3800    -1.5330 h1         1 AMJ       0.037200
     23 HAA         -0.0710    -3.2020    -0.6350 h1         1 AMJ       0.030367
     24 HAAA         1.6360    -3.6600    -0.7820 h1         1 AMJ       0.030367
     25 HAAB         0.8160    -3.7850     0.7860 h1         1 AMJ       0.030367
     26 HAB          6.2270     0.0250    -0.0490 hc         1 AMJ       0.061700
     27 HABA         5.8480     1.6920     0.3510 hc         1 AMJ       0.061700
     28 HABB         5.3220     0.3950     1.4260 hc         1 AMJ       0.061700
     29 HAF         -3.9780    -2.5440    -0.3540 ha         1 AMJ       0.132500
     30 HAG         -5.8950     1.2260    -1.0180 ha         1 AMJ       0.132500
     31 HAH         -2.0360    -1.3820     0.6250 ha         1 AMJ       0.135500
     32 HAI         -3.9490     2.3860    -0.0420 ha         1 AMJ       0.135500
     33 HAJ         -1.4840     0.8900     1.9650 h1         1 AMJ       0.064200
     34 HAJA        -1.8590     2.3460     1.0600 h1         1 AMJ       0.064200
     35 HNAL        -0.6080     0.9830    -0.8370 hn         1 AMJ       0.316500
     36 HAE         -5.9170    -1.2410    -1.1770 ha         1 AMJ       0.132000
@<TRIPOS>BOND
     1     1     3 2   
     2     1     4 1   
     3     1    15 1   
     4     2     4 1   
     5     2    17 1   
     6     2    19 1   
     7     4     5 1   
     8     4    20 1   
     9     5    16 1   
    10     5    21 1   
    11     5    22 1   
    12     6    16 1   
    13     6    23 1   
    14     6    24 1   
    15     6    25 1   
    16     7    17 1   
    17     7    26 1   
    18     7    27 1   
    19     7    28 1   
    20     8    17 2   
    21     9    10 ar  
    22     9    11 ar  
    23     9    36 1   
    24    10    12 ar  
    25    10    29 1   
    26    11    13 ar  
    27    11    30 1   
    28    12    18 ar  
    29    12    31 1   
    30    13    18 ar  
    31    13    32 1   
    32    14    15 1   
    33    14    18 1   
    34    14    33 1   
    35    14    34 1   
    36    15    35 1   
@<TRIPOS>SUBSTRUCTURE
     1 AMJ         1 TEMP              0 ****  ****    0 ROOT
