@<TRIPOS>MOLECULE
AMJ
   36    36     1     0     0
SMALL
No Charge or Current Charge


@<TRIPOS>ATOM
      1 C            0.6680     0.6230     0.7330 c          1 AMJ       0.603100
      2 N            3.1010     0.5800     0.1570 ns         1 AMJ      -0.492900
      3 O            0.9530     0.9970     1.8660 o          1 AMJ      -0.600100
      4 CA           1.7360     0.2700    -0.3390 c3         1 AMJ       0.035700
      5 CB           1.6050    -1.2010    -0.8100 c3         1 AMJ       0.138600
      6 CAA          1.7510    -3.4710     0.0170 c3         1 AMJ       0.143900
      7 CAB          5.5130     0.9700     0.1300 c3         1 AMJ      -0.176100
      8 OAC          4.1820     0.5940    -1.8470 o          1 AMJ      -0.621100
      9 CAE         -5.4960    -0.1200    -0.9020 ca         1 AMJ      -0.102000
     10 CAF         -4.8160    -1.1320    -0.2030 ca         1 AMJ      -0.112500
     11 CAG         -4.9760     1.1850    -0.9260 ca         1 AMJ      -0.112500
     12 CAH         -3.6190    -0.8390     0.4730 ca         1 AMJ      -0.097000
     13 CAI         -3.7780     1.4790    -0.2510 ca         1 AMJ      -0.097000
     14 CAJ         -1.7960     0.7830     1.1800 c3         1 AMJ       0.148300
     15 NAL         -0.6440     0.5090     0.3260 ns         1 AMJ      -0.503900
     16 OAN          1.8380    -2.0680     0.3160 os         1 AMJ      -0.449000
     17 CAO          4.2220     0.6960    -0.6290 c          1 AMJ       0.604100
     18 CAQ         -3.0950     0.4690     0.4540 ca         1 AMJ      -0.117300
     19 HN           3.2310     0.6850     1.1580 hn         1 AMJ       0.345500
     20 HA           1.5300     0.9180    -1.2000 h1         1 AMJ       0.088700
     21 HB           0.6040    -1.3700    -1.2270 h1         1 AMJ       0.037200
     22 HBA          2.3360    -1.3980    -1.6050 h1         1 AMJ       0.037200
     23 HAA          0.7520    -3.7280    -0.3590 h1         1 AMJ       0.030367
     24 HAAA         2.4920    -3.7550    -0.7410 h1         1 AMJ       0.030367
     25 HAAB         1.9400    -4.0660     0.9190 h1         1 AMJ       0.030367
     26 HAB          6.3810     1.0610    -0.5320 hc         1 AMJ       0.061700
     27 HABA         5.3800     1.8640     0.7500 hc         1 AMJ       0.061700
     28 HABB         5.6580     0.1850     0.8810 hc         1 AMJ       0.061700
     29 HAF         -5.2170    -2.1430    -0.1850 ha         1 AMJ       0.114500
     30 HAG         -5.5000     1.9690    -1.4680 ha         1 AMJ       0.114500
     31 HAH         -3.0970    -1.6290     1.0100 ha         1 AMJ       0.117500
     32 HAI         -3.3820     2.4920    -0.2760 ha         1 AMJ       0.117500
     33 HAJ         -1.7220     0.1730     2.0900 h1         1 AMJ       0.064200
     34 HAJA        -1.7790     1.8400     1.4780 h1         1 AMJ       0.064200
     35 HNAL        -0.8160     0.2080    -0.6250 hn         1 AMJ       0.316500
     36 HAE         -6.4220    -0.3470    -1.4250 ha         1 AMJ       0.114000
@<TRIPOS>BOND
     1     1     3 2   
     2     1     4 1   
     3     1    15 1   
     4     2     4 1   
     5     2    17 1   
     6     2    19 1   
     7     4     5 1   
     8     4    20 1   
     9     5    16 1   
    10     5    21 1   
    11     5    22 1   
    12     6    16 1   
    13     6    23 1   
    14     6    24 1   
    15     6    25 1   
    16     7    17 1   
    17     7    26 1   
    18     7    27 1   
    19     7    28 1   
    20     8    17 2   
    21     9    10 ar  
    22     9    11 ar  
    23     9    36 1   
    24    10    12 ar  
    25    10    29 1   
    26    11    13 ar  
    27    11    30 1   
    28    12    18 ar  
    29    12    31 1   
    30    13    18 ar  
    31    13    32 1   
    32    14    15 1   
    33    14    18 1   
    34    14    33 1   
    35    14    34 1   
    36    15    35 1   
@<TRIPOS>SUBSTRUCTURE
     1 AMJ         1 TEMP              0 ****  ****    0 ROOT
