@<TRIPOS>MOLECULE
AMK
   93    93     1     0     0
SMALL
abcg2


@<TRIPOS>ATOM
      1 N65         23.3450     8.1050    11.8880 n8         1 AMK      -1.029200
      2 C63         23.5540     8.7770    13.1630 c3         1 AMK       0.077500
      3 C61         25.0210     8.6860    13.5970 c          1 AMK       0.605100
      4 O62         25.3880     9.0640    14.7020 o          1 AMK      -0.634100
      5 C68         22.6240     8.3140    14.2880 c3         1 AMK      -0.078400
      6 C71         21.1580     8.5580    13.9690 c3         1 AMK      -0.212400
      7 C74         20.1520     8.1330    15.0590 c          1 AMK       0.721000
      8 O75         20.5970     7.5410    16.0620 o          1 AMK      -0.739000
      9 O76         18.9580     8.4160    14.8290 o          1 AMK      -0.739000
     10 N59         25.8380     8.1890    12.6590 ns         1 AMK      -0.491900
     11 C57         27.2600     8.0590    12.7950 c3         1 AMK       0.041700
     12 C55         27.9380     8.7220    11.5970 c          1 AMK       0.590100
     13 O56         27.3460     8.9410    10.5550 o          1 AMK      -0.566100
     14 C78         27.7070     6.5860    12.9450 c3         1 AMK      -0.065700
     15 C80         27.1550     5.9910    14.2350 c3         1 AMK      -0.090100
     16 C84         27.3160     5.7320    11.7450 c3         1 AMK      -0.090100
     17 N53         29.2460     9.0060    11.7840 ns         1 AMK      -0.522900
     18 C51         30.0660     9.7050    10.8240 c3         1 AMK       0.031700
     19 C49         31.0960     8.8260    10.1080 c          1 AMK       0.588100
     20 O50         31.9060     9.3440     9.3490 o          1 AMK      -0.627100
     21 C88         30.7580    10.8910    11.4850 c3         1 AMK      -0.173400
     22 C91         29.7590    11.9360    11.9460 c          1 AMK       0.600100
     23 O92         28.7470    12.1870    11.3080 o          1 AMK      -0.583100
     24 N93         30.0900    12.5740    13.0780 nt         1 AMK      -0.616000
     25 N1          31.0180     7.5160    10.3480 ns         1 AMK      -0.478900
     26 C3          31.8870     6.5140     9.7650 c3         1 AMK       0.118700
     27 C5          31.1160     5.5500     8.8590 c3         1 AMK       0.165300
     28 O7          30.1640     4.8820     9.6550 oh         1 AMK      -0.680000
     29 C9          30.5020     6.2190     7.6240 c5         1 AMK      -0.095700
     30 C11         30.0340     5.2070     6.5600 c5         1 AMK      -0.148700
     31 C13         29.1620     6.0630     5.6470 c5         1 AMK      -0.066400
     32 C16         28.3370     6.8830     6.6380 c5         1 AMK      -0.081400
     33 C19         29.2680     7.1190     7.8460 c5         1 AMK      -0.067400
     34 C22         31.1890     4.5290     5.8530 c          1 AMK       0.602100
     35 O23         31.9840     5.1670     5.1710 o          1 AMK      -0.619100
     36 C36         32.6420     5.7740    10.8720 c3         1 AMK      -0.087400
     37 C39         33.5500     6.6530    11.7340 c3         1 AMK      -0.057700
     38 C41         34.7060     7.2480    10.9360 c3         1 AMK      -0.090100
     39 C45         34.0800     5.8460    12.9150 c3         1 AMK      -0.090100
     40 N24         31.3020     3.2110     6.0670 ns         1 AMK      -0.461900
     41 C26         32.2780     2.3790     5.4020 c3         1 AMK      -0.042300
     42 C32         31.9530     2.1130     3.9060 c          1 AMK       0.719000
     43 O34         32.8780     1.5670     3.2710 o          1 AMK      -0.725500
     44 C28         32.4080     1.0610     6.1570 c3         1 AMK      -0.079100
     45 O33         30.8270     2.4290     3.4870 o          1 AMK      -0.725500
     46 H651        23.1190     7.1280    12.0400 hn         1 AMK       0.407000
     47 H652        22.5550     8.5070    11.4040 hn         1 AMK       0.407000
     48 H63         23.3790     9.8460    12.9920 h1         1 AMK       0.068700
     49 H681        22.8900     8.8320    15.2100 hc         1 AMK       0.059700
     50 H682        22.7970     7.2490    14.4720 hc         1 AMK       0.059700
     51 H711        20.8810     8.0390    13.0450 hc         1 AMK       0.013200
     52 H712        21.0030     9.6220    13.7530 hc         1 AMK       0.013200
     53 H59         25.3930     7.9790    11.7740 hn         1 AMK       0.361500
     54 H57         27.5590     8.5920    13.7020 h1         1 AMK       0.080700
     55 H78         28.7990     6.5900    13.0230 hc         1 AMK       0.030700
     56 H801        26.0660     5.9320    14.2120 hc         1 AMK       0.040200
     57 H802        27.5350     4.9790    14.3780 hc         1 AMK       0.040200
     58 H803        27.4430     6.5810    15.1070 hc         1 AMK       0.040200
     59 H841        27.7620     6.0850    10.8150 hc         1 AMK       0.040200
     60 H842        27.6510     4.7050    11.8910 hc         1 AMK       0.040200
     61 H843        26.2330     5.7050    11.6120 hc         1 AMK       0.040200
     62 H53         29.6360     8.8580    12.7040 hn         1 AMK       0.305500
     63 H51         29.4050    10.0800    10.0390 h1         1 AMK       0.129700
     64 H881        31.4240    11.3690    10.7640 hc         1 AMK       0.070700
     65 H882        31.3860    10.5520    12.3130 hc         1 AMK       0.070700
     66 H931        29.5190    13.3270    13.4260 hn         1 AMK       0.309500
     67 H932        30.9290    12.3550    13.5850 hn         1 AMK       0.309500
     68 HN1         30.3090     7.1930    10.9890 hn         1 AMK       0.329500
     69 H3          32.5990     7.0360     9.1250 h1         1 AMK       0.088700
     70 H5          31.8710     4.8370     8.4930 h1         1 AMK       0.047700
     71 HO7         29.7600     4.1740     9.1450 ho         1 AMK       0.451000
     72 H9          31.2940     6.8160     7.1590 hc         1 AMK       0.080700
     73 H11         29.3870     4.4550     7.0290 hc         1 AMK       0.035700
     74 H131        28.5490     5.4710     4.9650 hc         1 AMK       0.061200
     75 H132        29.7980     6.7130     5.0420 hc         1 AMK       0.061200
     76 H161        27.4590     6.3110     6.9460 hc         1 AMK       0.037200
     77 H162        27.9720     7.8140     6.2030 hc         1 AMK       0.037200
     78 H191        29.5610     8.1660     7.9160 hc         1 AMK       0.046200
     79 H192        28.7620     6.8690     8.7770 hc         1 AMK       0.046200
     80 H361        33.2470     4.9840    10.4140 hc         1 AMK       0.051700
     81 H362        31.9180     5.2710    11.5190 hc         1 AMK       0.051700
     82 H39         32.9500     7.4780    12.1350 hc         1 AMK       0.040700
     83 H411        34.3650     7.8990    10.1310 hc         1 AMK       0.031533
     84 H412        35.3560     7.8440    11.5800 hc         1 AMK       0.031533
     85 H413        35.3180     6.4600    10.4910 hc         1 AMK       0.031533
     86 H451        34.6760     4.9970    12.5730 hc         1 AMK       0.031533
     87 H452        34.7140     6.4570    13.5600 hc         1 AMK       0.031533
     88 H453        33.2660     5.4530    13.5270 hc         1 AMK       0.031533
     89 H24         30.5490     2.7490     6.5530 hn         1 AMK       0.286500
     90 H26         33.2420     2.8940     5.4440 h1         1 AMK       0.057700
     91 H281        31.4740     0.4930     6.1300 hc         1 AMK       0.019700
     92 H282        33.1850     0.4450     5.7090 hc         1 AMK       0.019700
     93 H283        32.6690     1.2260     7.2040 hc         1 AMK       0.019700
@<TRIPOS>BOND
     1     1     2 1   
     2     1    46 1   
     3     1    47 1   
     4     2     3 1   
     5     2     5 1   
     6     2    48 1   
     7     3     4 2   
     8     3    10 1   
     9     5     6 1   
    10     5    49 1   
    11     5    50 1   
    12     6     7 1   
    13     6    51 1   
    14     6    52 1   
    15     7     8 1   
    16     7     9 1   
    17    10    11 1   
    18    10    53 1   
    19    11    12 1   
    20    11    14 1   
    21    11    54 1   
    22    12    13 2   
    23    12    17 1   
    24    14    15 1   
    25    14    16 1   
    26    14    55 1   
    27    15    56 1   
    28    15    57 1   
    29    15    58 1   
    30    16    59 1   
    31    16    60 1   
    32    16    61 1   
    33    17    18 1   
    34    17    62 1   
    35    18    19 1   
    36    18    21 1   
    37    18    63 1   
    38    19    20 2   
    39    19    25 1   
    40    21    22 1   
    41    21    64 1   
    42    21    65 1   
    43    22    23 2   
    44    22    24 1   
    45    24    66 1   
    46    24    67 1   
    47    25    26 1   
    48    25    68 1   
    49    26    27 1   
    50    26    36 1   
    51    26    69 1   
    52    27    28 1   
    53    27    29 1   
    54    27    70 1   
    55    28    71 1   
    56    29    30 1   
    57    29    33 1   
    58    29    72 1   
    59    30    31 1   
    60    30    34 1   
    61    30    73 1   
    62    31    32 1   
    63    31    74 1   
    64    31    75 1   
    65    32    33 1   
    66    32    76 1   
    67    32    77 1   
    68    33    78 1   
    69    33    79 1   
    70    34    35 2   
    71    34    40 1   
    72    36    37 1   
    73    36    80 1   
    74    36    81 1   
    75    37    38 1   
    76    37    39 1   
    77    37    82 1   
    78    38    83 1   
    79    38    84 1   
    80    38    85 1   
    81    39    86 1   
    82    39    87 1   
    83    39    88 1   
    84    40    41 1   
    85    40    89 1   
    86    41    42 1   
    87    41    44 1   
    88    41    90 1   
    89    42    43 1   
    90    42    45 1   
    91    44    91 1   
    92    44    92 1   
    93    44    93 1   
@<TRIPOS>SUBSTRUCTURE
     1 AMK         1 TEMP              0 ****  ****    0 ROOT
