@<TRIPOS>MOLECULE
AMK
   93    93     1     0     0
SMALL
No Charge or Current Charge


@<TRIPOS>ATOM
      1 N65         23.1710     8.8480    11.7630 n8         1 AMK      -1.029200
      2 C63         23.4570     8.7880    13.2430 c3         1 AMK       0.077500
      3 C61         24.9560     8.4880    13.6280 c          1 AMK       0.605100
      4 O62         25.3410     8.3040    14.7770 o          1 AMK      -0.634100
      5 C68         22.4850     7.7830    13.9220 c3         1 AMK      -0.078400
      6 C71         20.9770     8.1330    13.7690 c3         1 AMK      -0.212400
      7 C74         20.1210     7.1640    14.6050 c          1 AMK       0.721000
      8 O75         19.7510     6.1240    14.0820 o          1 AMK      -0.739000
      9 O76         19.8950     7.4530    15.7700 o          1 AMK      -0.739000
     10 N59         25.8080     8.4380    12.5510 ns         1 AMK      -0.491900
     11 C57         27.2580     8.1330    12.5960 c3         1 AMK       0.041700
     12 C55         28.0330     9.0470    11.6010 c          1 AMK       0.590100
     13 O56         27.4850     9.6990    10.7220 o          1 AMK      -0.566100
     14 C78         27.5440     6.6180    12.3440 c3         1 AMK      -0.065700
     15 C80         27.0710     5.7230    13.5130 c3         1 AMK      -0.090100
     16 C84         26.9780     6.1110    10.9940 c3         1 AMK      -0.090100
     17 N53         29.4040     9.0760    11.7820 ns         1 AMK      -0.522900
     18 C51         30.3440     9.9360    11.0140 c3         1 AMK       0.031700
     19 C49         31.4080     9.1030    10.2350 c          1 AMK       0.588100
     20 O50         32.2990     9.6280     9.5810 o          1 AMK      -0.627100
     21 C88         30.9890    10.9910    11.9480 c3         1 AMK      -0.173400
     22 C91         29.9450    11.9150    12.5720 c          1 AMK       0.600100
     23 O92         29.4220    12.8330    11.9660 o          1 AMK      -0.583100
     24 N93         29.6360    11.6850    13.8660 nt         1 AMK      -0.616000
     25 N1          31.2890     7.7340    10.3340 ns         1 AMK      -0.478900
     26 C3          32.1510     6.7420     9.6790 c3         1 AMK       0.118700
     27 C5          31.3050     5.7430     8.8250 c3         1 AMK       0.165300
     28 O7          30.2440     5.1910     9.6240 oh         1 AMK      -0.680000
     29 C9          30.7150     6.3390     7.5080 c5         1 AMK      -0.095700
     30 C11         29.9880     5.3200     6.5780 c5         1 AMK      -0.148700
     31 C13         29.4720     6.2820     5.4770 c5         1 AMK      -0.066400
     32 C16         28.7870     7.3850     6.3310 c5         1 AMK      -0.081400
     33 C19         29.6270     7.4570     7.6490 c5         1 AMK      -0.067400
     34 C22         30.9980     4.3020     5.9770 c          1 AMK       0.602100
     35 O23         32.0300     4.5550     5.3700 o          1 AMK      -0.619100
     36 C36         33.0180     6.0060    10.7390 c3         1 AMK      -0.087400
     37 C39         33.9930     6.8970    11.5630 c3         1 AMK      -0.057700
     38 C41         35.0910     7.5460    10.6870 c3         1 AMK      -0.090100
     39 C45         34.6270     6.0940    12.7200 c3         1 AMK      -0.090100
     40 N24         30.5650     3.0200     6.2430 ns         1 AMK      -0.461900
     41 C26         31.3000     1.7810     5.8980 c3         1 AMK      -0.042300
     42 C32         30.3330     0.5580     5.8350 c          1 AMK       0.719000
     43 O34         30.3840    -0.1660     4.8500 o          1 AMK      -0.725500
     44 C28         32.4710     1.5330     6.8750 c3         1 AMK      -0.079100
     45 O33         29.4930     0.4290     6.7170 o          1 AMK      -0.725500
     46 H651        23.1780     7.8940    11.3810 hn         1 AMK       0.407000
     47 H652        22.1920     9.1320    11.6350 hn         1 AMK       0.407000
     48 H63         23.2570     9.7890    13.6520 h1         1 AMK       0.068700
     49 H681        22.7180     7.7460    14.9930 hc         1 AMK       0.059700
     50 H682        22.6710     6.7740    13.5320 hc         1 AMK       0.059700
     51 H711        20.7380     8.0240    12.7040 hc         1 AMK       0.013200
     52 H712        20.8670     9.1580    14.1440 hc         1 AMK       0.013200
     53 H59         25.3740     8.6630    11.6610 hn         1 AMK       0.361500
     54 H57         27.6360     8.3940    13.5930 h1         1 AMK       0.080700
     55 H78         28.6330     6.4970    12.2950 hc         1 AMK       0.030700
     56 H801        25.9770     5.7240    13.5950 hc         1 AMK       0.040200
     57 H802        27.3980     4.6880    13.3620 hc         1 AMK       0.040200
     58 H803        27.4880     6.0730    14.4640 hc         1 AMK       0.040200
     59 H841        27.3390     6.7220    10.1590 hc         1 AMK       0.040200
     60 H842        27.2910     5.0760    10.8110 hc         1 AMK       0.040200
     61 H843        25.8820     6.1380    10.9890 hc         1 AMK       0.040200
     62 H53         29.7690     8.5350    12.5600 hn         1 AMK       0.305500
     63 H51         29.7830    10.4670    10.2320 h1         1 AMK       0.129700
     64 H881        31.6790    11.6050    11.3570 hc         1 AMK       0.070700
     65 H882        31.5430    10.4610    12.7330 hc         1 AMK       0.070700
     66 H931        28.9600    12.2770    14.3250 hn         1 AMK       0.309500
     67 H932        30.0840    10.9330    14.3690 hn         1 AMK       0.309500
     68 HN1         30.4830     7.3840    10.8350 hn         1 AMK       0.329500
     69 H3          32.8300     7.2570     8.9860 h1         1 AMK       0.088700
     70 H5          31.9820     4.9340     8.5190 h1         1 AMK       0.047700
     71 HO7         29.6110     4.7750     9.0030 ho         1 AMK       0.451000
     72 H9          31.5800     6.7600     6.9770 hc         1 AMK       0.080700
     73 H11         29.1560     4.8090     7.0800 hc         1 AMK       0.035700
     74 H131        28.7740     5.7960     4.7850 hc         1 AMK       0.061200
     75 H132        30.2890     6.6970     4.8750 hc         1 AMK       0.061200
     76 H161        27.7480     7.1160     6.5530 hc         1 AMK       0.037200
     77 H162        28.7600     8.3460     5.8050 hc         1 AMK       0.037200
     78 H191        30.0840     8.4450     7.7750 hc         1 AMK       0.046200
     79 H192        28.9810     7.2980     8.5190 hc         1 AMK       0.046200
     80 H361        33.6010     5.2230    10.2380 hc         1 AMK       0.051700
     81 H362        32.3450     5.4880    11.4330 hc         1 AMK       0.051700
     82 H39         33.4140     7.7080    12.0220 hc         1 AMK       0.040700
     83 H411        34.6600     8.2050     9.9260 hc         1 AMK       0.031533
     84 H412        35.7670     8.1520    11.3020 hc         1 AMK       0.031533
     85 H413        35.6880     6.7790    10.1780 hc         1 AMK       0.031533
     86 H451        35.2280     5.2610    12.3360 hc         1 AMK       0.031533
     87 H452        35.2790     6.7350    13.3270 hc         1 AMK       0.031533
     88 H453        33.8520     5.6840    13.3790 hc         1 AMK       0.031533
     89 H24         29.6850     2.9250     6.7360 hn         1 AMK       0.286500
     90 H26         31.7180     1.9080     4.8900 h1         1 AMK       0.057700
     91 H281        32.1020     1.4100     7.9010 hc         1 AMK       0.019700
     92 H282        33.0170     0.6250     6.5950 hc         1 AMK       0.019700
     93 H283        33.1770     2.3720     6.8620 hc         1 AMK       0.019700
@<TRIPOS>BOND
     1     1     2 1   
     2     1    46 1   
     3     1    47 1   
     4     2     3 1   
     5     2     5 1   
     6     2    48 1   
     7     3     4 2   
     8     3    10 1   
     9     5     6 1   
    10     5    49 1   
    11     5    50 1   
    12     6     7 1   
    13     6    51 1   
    14     6    52 1   
    15     7     8 1   
    16     7     9 1   
    17    10    11 1   
    18    10    53 1   
    19    11    12 1   
    20    11    14 1   
    21    11    54 1   
    22    12    13 2   
    23    12    17 1   
    24    14    15 1   
    25    14    16 1   
    26    14    55 1   
    27    15    56 1   
    28    15    57 1   
    29    15    58 1   
    30    16    59 1   
    31    16    60 1   
    32    16    61 1   
    33    17    18 1   
    34    17    62 1   
    35    18    19 1   
    36    18    21 1   
    37    18    63 1   
    38    19    20 2   
    39    19    25 1   
    40    21    22 1   
    41    21    64 1   
    42    21    65 1   
    43    22    23 2   
    44    22    24 1   
    45    24    66 1   
    46    24    67 1   
    47    25    26 1   
    48    25    68 1   
    49    26    27 1   
    50    26    36 1   
    51    26    69 1   
    52    27    28 1   
    53    27    29 1   
    54    27    70 1   
    55    28    71 1   
    56    29    30 1   
    57    29    33 1   
    58    29    72 1   
    59    30    31 1   
    60    30    34 1   
    61    30    73 1   
    62    31    32 1   
    63    31    74 1   
    64    31    75 1   
    65    32    33 1   
    66    32    76 1   
    67    32    77 1   
    68    33    78 1   
    69    33    79 1   
    70    34    35 2   
    71    34    40 1   
    72    36    37 1   
    73    36    80 1   
    74    36    81 1   
    75    37    38 1   
    76    37    39 1   
    77    37    82 1   
    78    38    83 1   
    79    38    84 1   
    80    38    85 1   
    81    39    86 1   
    82    39    87 1   
    83    39    88 1   
    84    40    41 1   
    85    40    89 1   
    86    41    42 1   
    87    41    44 1   
    88    41    90 1   
    89    42    43 1   
    90    42    45 1   
    91    44    91 1   
    92    44    92 1   
    93    44    93 1   
@<TRIPOS>SUBSTRUCTURE
     1 AMK         1 TEMP              0 ****  ****    0 ROOT
