@<TRIPOS>MOLECULE
AML
   19    18     1     0     0
SMALL
bcc


@<TRIPOS>ATOM
      1 C1          -0.2340     0.0370     3.1960 c3         1 AML      -0.089100
      2 C2           0.5400    -0.0250     1.8870 c3         1 AML      -0.074400
      3 C3          -0.3700     0.0090     0.6640 c3         1 AML      -0.076400
      4 C4           0.3910    -0.0360    -0.6550 c3         1 AML      -0.078400
      5 C5          -0.5280    -0.0070    -1.8670 c3         1 AML       0.149800
      6 N1           0.2380    -0.0410    -3.1050 n8         1 AML      -0.885800
      7 HC11         0.4300     0.0050     4.0600 hc         1 AML       0.031367
      8 HC12        -0.8200     0.9560     3.2630 hc         1 AML       0.031367
      9 HC13        -0.9290    -0.8010     3.2830 hc         1 AML       0.031367
     10 HC21         1.2430     0.8120     1.8360 hc         1 AML       0.037700
     11 HC22         1.1470    -0.9350     1.8600 hc         1 AML       0.037700
     12 HC31        -1.0700    -0.8330     0.7120 hc         1 AML       0.036200
     13 HC32        -0.9860     0.9150     0.7000 hc         1 AML       0.036200
     14 HC41         1.0810     0.8150    -0.7040 hc         1 AML       0.045200
     15 HC42         1.0100    -0.9380    -0.6970 hc         1 AML       0.045200
     16 HC51        -1.1770    -0.8860    -1.8410 h1         1 AML       0.025200
     17 HC52        -1.1920     0.8670    -1.7870 h1         1 AML       0.025200
     18 HN11        -0.3940    -0.0630    -3.8950 hn         1 AML       0.335300
     19 HN12         0.7550     0.8260    -3.1980 hn         1 AML       0.335300
@<TRIPOS>BOND
     1     1     2 1   
     2     1     7 1   
     3     1     8 1   
     4     1     9 1   
     5     2     3 1   
     6     2    10 1   
     7     2    11 1   
     8     3     4 1   
     9     3    12 1   
    10     3    13 1   
    11     4     5 1   
    12     4    14 1   
    13     4    15 1   
    14     5     6 1   
    15     5    16 1   
    16     5    17 1   
    17     6    18 1   
    18     6    19 1   
@<TRIPOS>SUBSTRUCTURE
     1 AML         1 TEMP              0 ****  ****    0 ROOT
