@<TRIPOS>MOLECULE
AML
   19    18     1     0     0
SMALL
No Charge or Current Charge


@<TRIPOS>ATOM
      1 C1          -0.2340     0.0320     3.2430 c3         1 AML      -0.089100
      2 C2           0.5400    -0.0140     1.9110 c3         1 AML      -0.074400
      3 C3          -0.3840     0.0050     0.6730 c3         1 AML      -0.076400
      4 C4           0.3910    -0.0400    -0.6630 c3         1 AML      -0.078400
      5 C5          -0.5380    -0.0210    -1.8940 c3         1 AML       0.149800
      6 N1           0.2290    -0.0680    -3.1520 n8         1 AML      -0.996200
      7 HC11         0.4620     0.0160     4.0900 hc         1 AML       0.031367
      8 HC12        -0.8370     0.9460     3.3110 hc         1 AML       0.031367
      9 HC13        -0.9030    -0.8330     3.3320 hc         1 AML       0.031367
     10 HC21         1.2240     0.8420     1.8680 hc         1 AML       0.037700
     11 HC22         1.1580    -0.9200     1.8890 hc         1 AML       0.037700
     12 HC31        -1.0690    -0.8510     0.7220 hc         1 AML       0.036200
     13 HC32        -1.0030     0.9110     0.7000 hc         1 AML       0.036200
     14 HC41         1.0740     0.8170    -0.7110 hc         1 AML       0.045200
     15 HC42         1.0070    -0.9470    -0.6890 hc         1 AML       0.045200
     16 HC51        -1.2130    -0.8880    -1.8620 h1         1 AML       0.025200
     17 HC52        -1.1460     0.8940    -1.8860 h1         1 AML       0.025200
     18 HN11        -0.4230     0.0110    -3.9430 hn         1 AML       0.390500
     19 HN12         0.8000     0.7830    -3.2260 hn         1 AML       0.390500
@<TRIPOS>BOND
     1     1     2 1   
     2     1     7 1   
     3     1     8 1   
     4     1     9 1   
     5     2     3 1   
     6     2    10 1   
     7     2    11 1   
     8     3     4 1   
     9     3    12 1   
    10     3    13 1   
    11     4     5 1   
    12     4    14 1   
    13     4    15 1   
    14     5     6 1   
    15     5    16 1   
    16     5    17 1   
    17     6    18 1   
    18     6    19 1   
@<TRIPOS>SUBSTRUCTURE
     1 AML         1 TEMP              0 ****  ****    0 ROOT
