@<TRIPOS>MOLECULE
AMM
   32    31     1     0     0
SMALL
abcg2


@<TRIPOS>ATOM
      1 N           -1.5070    -0.8320    -1.1170 n8         1 AMM      -0.976200
      2 CA          -0.2420    -0.1190    -0.9370 c3         1 AMM       0.058800
      3 SI           1.1700    -1.3580    -0.9590 s6         1 AMM       0.440400
      4 O1           2.5470    -0.4340    -0.7770 oh         1 AMM      -0.682200
      5 O2           1.1800    -2.2410    -2.3720 oh         1 AMM      -0.682200
      6 CH2          0.9920    -2.6300     0.4060 c3         1 AMM      -0.154400
      7 CE           1.0910    -2.0430     1.8270 c3         1 AMM      -0.145700
      8 C            2.4900    -1.5240     2.0660 c          1 AMM       0.572900
      9 O            3.4780    -2.2120     1.9720 o          1 AMM      -0.528100
     10 CB           0.7030    -3.1020     2.8740 c3         1 AMM      -0.062400
     11 CG           0.4070    -2.6040     4.2920 c3         1 AMM      -0.061700
     12 CD1         -0.7840    -1.6500     4.3290 c3         1 AMM      -0.089600
     13 CD2          1.6150    -1.9800     4.9840 c3         1 AMM      -0.089600
     14 HN1         -1.5560    -1.2080    -2.0550 hn         1 AMM       0.388000
     15 HN2         -2.2800    -0.1820    -1.0470 hn         1 AMM       0.388000
     16 HA1         -0.2510     0.3640     0.0450 h2         1 AMM       0.054200
     17 HA2         -0.0710     0.6910    -1.6620 h2         1 AMM       0.054200
     18 HO1          3.3830    -0.9110    -0.7610 ho         1 AMM       0.477000
     19 HO2          1.1880    -1.7290    -3.1870 ho         1 AMM       0.477000
     20 HH21         1.7220    -3.4370     0.2890 h1         1 AMM       0.084200
     21 HH22         0.0050    -3.0890     0.2930 h1         1 AMM       0.084200
     22 HE           0.4050    -1.1950     1.9090 hc         1 AMM       0.058700
     23 H            2.5780    -0.4560     2.3350 h4         1 AMM      -0.008800
     24 HB1          1.4870    -3.8660     2.9060 hc         1 AMM       0.050200
     25 HB2         -0.1930    -3.6060     2.5010 hc         1 AMM       0.050200
     26 HG           0.1300    -3.4970     4.8630 hc         1 AMM       0.047700
     27 HD11        -1.6550    -2.0740     3.8280 hc         1 AMM       0.033200
     28 HD12        -1.0700    -1.4250     5.3570 hc         1 AMM       0.033200
     29 HD13        -0.5530    -0.6980     3.8450 hc         1 AMM       0.033200
     30 HD21         1.8890    -1.0220     4.5350 hc         1 AMM       0.033200
     31 HD22         2.4900    -2.6330     4.9460 hc         1 AMM       0.033200
     32 HD23         1.3980    -1.7820     6.0350 hc         1 AMM       0.033200
@<TRIPOS>BOND
     1     1     2 1   
     2     1    14 1   
     3     1    15 1   
     4     2     3 1   
     5     2    16 1   
     6     2    17 1   
     7     3     4 1   
     8     3     5 1   
     9     3     6 1   
    10     4    18 1   
    11     5    19 1   
    12     6     7 1   
    13     6    20 1   
    14     6    21 1   
    15     7     8 1   
    16     7    10 1   
    17     7    22 1   
    18     8     9 2   
    19     8    23 1   
    20    10    11 1   
    21    10    24 1   
    22    10    25 1   
    23    11    12 1   
    24    11    13 1   
    25    11    26 1   
    26    12    27 1   
    27    12    28 1   
    28    12    29 1   
    29    13    30 1   
    30    13    31 1   
    31    13    32 1   
@<TRIPOS>SUBSTRUCTURE
     1 AMM         1 TEMP              0 ****  ****    0 ROOT
