@<TRIPOS>MOLECULE
AMM
   32    31     1     0     0
SMALL
No Charge or Current Charge


@<TRIPOS>ATOM
      1 N           -1.4510    -0.6760    -1.7600 n8         1 AMM      -0.976200
      2 CA          -0.2360    -0.1070    -1.1020 c3         1 AMM       0.058800
      3 SI           1.1460    -1.2860    -0.8250 s6         1 AMM       0.440400
      4 O1           2.5850    -0.5440    -0.8090 oh         1 AMM      -0.682200
      5 O2           1.3180    -2.0870    -2.2260 oh         1 AMM      -0.682200
      6 CH2          1.0330    -2.5770     0.4440 c3         1 AMM      -0.154400
      7 CE           1.0990    -2.0170     1.8940 c3         1 AMM      -0.145700
      8 C            2.4820    -1.3920     2.1800 c          1 AMM       0.572900
      9 O            3.5220    -2.0400     2.2430 o          1 AMM      -0.528100
     10 CB           0.7040    -3.1090     2.9360 c3         1 AMM      -0.062400
     11 CG           0.4250    -2.6440     4.3980 c3         1 AMM      -0.061700
     12 CD1         -0.7500    -1.6440     4.5000 c3         1 AMM      -0.089600
     13 CD2          1.6720    -2.1290     5.1540 c3         1 AMM      -0.089600
     14 HN1         -1.2480    -0.8690    -2.7480 hn         1 AMM       0.388000
     15 HN2         -2.1800     0.0480    -1.8100 hn         1 AMM       0.388000
     16 HA1         -0.4880     0.2910    -0.1110 h2         1 AMM       0.054200
     17 HA2          0.1740     0.7040    -1.7160 h2         1 AMM       0.054200
     18 HO1          2.9960    -0.8580    -1.6430 ho         1 AMM       0.477000
     19 HO2          0.4240    -2.4470    -2.4110 ho         1 AMM       0.477000
     20 HH21         1.8480    -3.2890     0.2650 h1         1 AMM       0.084200
     21 HH22         0.0750    -3.0850     0.2760 h1         1 AMM       0.084200
     22 HE           0.3660    -1.2050     1.9540 hc         1 AMM       0.058700
     23 H            2.4800    -0.2940     2.3600 h4         1 AMM      -0.008800
     24 HB1          1.4810    -3.8840     2.9530 hc         1 AMM       0.050200
     25 HB2         -0.2020    -3.6120     2.5770 hc         1 AMM       0.050200
     26 HG           0.1030    -3.5470     4.9350 hc         1 AMM       0.047700
     27 HD11        -1.6340    -2.0270     3.9760 hc         1 AMM       0.033200
     28 HD12        -1.0250    -1.4810     5.5500 hc         1 AMM       0.033200
     29 HD13        -0.4850    -0.6720     4.0680 hc         1 AMM       0.033200
     30 HD21         1.9770    -1.1380     4.7990 hc         1 AMM       0.033200
     31 HD22         2.5150    -2.8210     5.0340 hc         1 AMM       0.033200
     32 HD23         1.4590    -2.0450     6.2260 hc         1 AMM       0.033200
@<TRIPOS>BOND
     1     1     2 1   
     2     1    14 1   
     3     1    15 1   
     4     2     3 1   
     5     2    16 1   
     6     2    17 1   
     7     3     4 1   
     8     3     5 1   
     9     3     6 1   
    10     4    18 1   
    11     5    19 1   
    12     6     7 1   
    13     6    20 1   
    14     6    21 1   
    15     7     8 1   
    16     7    10 1   
    17     7    22 1   
    18     8     9 2   
    19     8    23 1   
    20    10    11 1   
    21    10    24 1   
    22    10    25 1   
    23    11    12 1   
    24    11    13 1   
    25    11    26 1   
    26    12    27 1   
    27    12    28 1   
    28    12    29 1   
    29    13    30 1   
    30    13    31 1   
    31    13    32 1   
@<TRIPOS>SUBSTRUCTURE
     1 AMM         1 TEMP              0 ****  ****    0 ROOT
