@<TRIPOS>MOLECULE
AMN
   43    43     1     0     0
SMALL
abcg2


@<TRIPOS>ATOM
      1 C1           2.6140    -1.0290     0.5710 c          1 AMN       0.686000
      2 C2           2.0710     0.4230     0.3470 c6         1 AMN       0.264000
      3 C3           2.1510     0.8390    -1.1150 c6         1 AMN      -0.115400
      4 C4           1.1670     0.0350    -1.9520 c6         1 AMN       0.156300
      5 C5          -0.2410     0.2130    -1.3970 c6         1 AMN       0.072700
      6 C6          -0.2750    -0.0990     0.1080 c6         1 AMN       0.168300
      7 C7          -1.5810     0.3790     0.7480 c3         1 AMN       0.151300
      8 C8          -1.7620    -0.1830     2.1690 c3         1 AMN       0.134300
      9 C9          -2.9770     0.4110     2.8700 c3         1 AMN       0.116800
     10 C11         -2.8840    -1.3230    -3.6310 c3         1 AMN      -0.184100
     11 N5          -1.1830    -0.6370    -2.0840 ns         1 AMN      -0.494900
     12 N9          -3.0680    -0.0810     4.2360 n8         1 AMN      -0.989200
     13 O1A          1.9520    -1.7910     1.2930 o          1 AMN      -0.704500
     14 O1B          3.6990    -1.2680     0.0080 o          1 AMN      -0.704500
     15 O2           2.8320     1.3400     1.0700 os         1 AMN      -0.455000
     16 O4           1.1540     0.4450    -3.3000 oh         1 AMN      -0.668000
     17 O6           0.7450     0.5810     0.8000 os         1 AMN      -0.509000
     18 O7          -1.6590     1.7850     0.7240 oh         1 AMN      -0.727000
     19 O8          -1.8420    -1.5950     2.1280 oh         1 AMN      -0.632000
     20 O10         -2.3020     0.9690    -3.2230 o          1 AMN      -0.605100
     21 H31          1.9090     1.9030    -1.2020 hc         1 AMN       0.059700
     22 H32          3.1670     0.6930    -1.4840 hc         1 AMN       0.059700
     23 H4           1.4320    -1.0330    -1.8860 h1         1 AMN       0.050700
     24 H5          -0.5510     1.2490    -1.5560 h1         1 AMN       0.101700
     25 H6          -0.1800    -1.1820     0.2460 h1         1 AMN       0.084700
     26 H7          -2.4170     0.0150     0.1380 h1         1 AMN       0.053700
     27 H8          -0.8740     0.0440     2.7660 h1         1 AMN       0.117700
     28 H91         -2.8740     1.4960     2.9040 h1         1 AMN       0.030700
     29 H92         -3.8730     0.2010     2.2610 h1         1 AMN       0.030700
     30 H111        -3.6470    -0.9140    -4.2860 hc         1 AMN       0.050367
     31 H112        -2.2210    -1.9580    -4.2200 hc         1 AMN       0.050367
     32 H113        -3.3650    -1.9590    -2.8860 hc         1 AMN       0.050367
     33 H121         3.4540     1.9500     2.8910 h1         1 AMN       0.024700
     34 H122         2.1100     0.8010     2.9600 h1         1 AMN       0.024700
     35 H123         3.7490     0.2350     2.5880 h1         1 AMN       0.024700
     36 HN5         -1.0590    -1.6330    -1.9800 hn         1 AMN       0.304500
     37 HN91        -3.8620     0.3480     4.6920 hn         1 AMN       0.386000
     38 HN92        -3.2610    -1.0750     4.2260 hn         1 AMN       0.386000
     39 HO4          1.9980     0.2020    -3.6920 ho         1 AMN       0.437000
     40 HO7         -0.8270     2.1220     1.0800 ho         1 AMN       0.525000
     41 HO8         -2.6450    -1.8380     1.6530 ho         1 AMN       0.412000
     42 C10         -2.1020    -0.2100    -2.9720 c          1 AMN       0.605100
     43 C12          3.0360     1.0510     2.4380 c3         1 AMN       0.166900
@<TRIPOS>BOND
     1     1     2 1   
     2     1    13 1   
     3     1    14 1   
     4     2     3 1   
     5     2    15 1   
     6     2    17 1   
     7     3     4 1   
     8     3    21 1   
     9     3    22 1   
    10     4     5 1   
    11     4    16 1   
    12     4    23 1   
    13     5     6 1   
    14     5    11 1   
    15     5    24 1   
    16     6     7 1   
    17     6    17 1   
    18     6    25 1   
    19     7     8 1   
    20     7    18 1   
    21     7    26 1   
    22     8     9 1   
    23     8    19 1   
    24     8    27 1   
    25     9    12 1   
    26     9    28 1   
    27     9    29 1   
    28    10    30 1   
    29    10    31 1   
    30    10    32 1   
    31    10    42 1   
    32    11    36 1   
    33    11    42 1   
    34    12    37 1   
    35    12    38 1   
    36    15    43 1   
    37    16    39 1   
    38    18    40 1   
    39    19    41 1   
    40    20    42 2   
    41    33    43 1   
    42    34    43 1   
    43    35    43 1   
@<TRIPOS>SUBSTRUCTURE
     1 AMN         1 TEMP              0 ****  ****    0 ROOT
