@<TRIPOS>MOLECULE
AMN
   43    43     1     0     0
SMALL
No Charge or Current Charge


@<TRIPOS>ATOM
      1 C1           2.8360    -1.0880     0.5610 c          1 AMN       0.686000
      2 C2           2.2440     0.3980     0.2690 c6         1 AMN       0.264000
      3 C3           2.2550     0.6670    -1.2610 c6         1 AMN      -0.115400
      4 C4           1.1600    -0.1370    -1.9960 c6         1 AMN       0.156300
      5 C5          -0.2390     0.1950    -1.4000 c6         1 AMN       0.072700
      6 C6          -0.2120    -0.0760     0.1330 c6         1 AMN       0.168300
      7 C7          -1.5130     0.4280     0.8520 c3         1 AMN       0.151300
      8 C8          -1.7980    -0.3050     2.2040 c3         1 AMN       0.134300
      9 C9          -3.0360     0.2700     2.9630 c3         1 AMN       0.116800
     10 C11         -3.1310    -1.1300    -3.6010 c3         1 AMN      -0.184100
     11 N5          -1.3080    -0.5820    -2.0730 ns         1 AMN      -0.494900
     12 N9          -3.3150    -0.4280     4.2440 n8         1 AMN      -0.989200
     13 O1A          2.0610    -1.9240     1.0120 o          1 AMN      -0.704500
     14 O1B          4.0080    -1.1570     0.9200 o          1 AMN      -0.704500
     15 O2           3.0650     1.4490     0.8540 os         1 AMN      -0.455000
     16 O4           1.2090     0.1580    -3.4010 oh         1 AMN      -0.668000
     17 O6           0.8880     0.6530     0.7640 os         1 AMN      -0.509000
     18 O7          -1.3770     1.8430     1.0810 oh         1 AMN      -0.727000
     19 O8          -2.0010    -1.7180     1.9660 oh         1 AMN      -0.632000
     20 O10         -2.2560     1.0970    -3.2960 o          1 AMN      -0.605100
     21 H31          2.1080     1.7390    -1.4470 hc         1 AMN       0.059700
     22 H32          3.2430     0.4130    -1.6680 hc         1 AMN       0.059700
     23 H4           1.3520    -1.2100    -1.8410 h1         1 AMN       0.050700
     24 H5          -0.4300     1.2670    -1.5510 h1         1 AMN       0.101700
     25 H6          -0.1080    -1.1550     0.3030 h1         1 AMN       0.084700
     26 H7          -2.3720     0.2420     0.1930 h1         1 AMN       0.053700
     27 H8          -0.9170    -0.1600     2.8460 h1         1 AMN       0.117700
     28 H91         -2.8820     1.3360     3.1820 h1         1 AMN       0.030700
     29 H92         -3.9230     0.1830     2.3190 h1         1 AMN       0.030700
     30 H111        -3.8370    -0.7010    -4.3220 hc         1 AMN       0.050367
     31 H112        -2.5290    -1.9280    -4.0510 hc         1 AMN       0.050367
     32 H113        -3.6500    -1.6580    -2.7930 hc         1 AMN       0.050367
     33 H121         3.8090     2.3310     2.5980 h1         1 AMN       0.024700
     34 H122         2.1340     1.7620     2.7140 h1         1 AMN       0.024700
     35 H123         3.4760     0.5950     2.7390 h1         1 AMN       0.024700
     36 HN5         -1.3460    -1.5820    -1.9140 hn         1 AMN       0.304500
     37 HN91        -4.2410    -0.1480     4.5890 hn         1 AMN       0.386000
     38 HN92        -3.4100    -1.4340     4.0590 hn         1 AMN       0.386000
     39 HO4          2.0760    -0.1620    -3.7320 ho         1 AMN       0.437000
     40 HO7         -0.3930     1.9610     1.1190 ho         1 AMN       0.525000
     41 HO8         -2.9110    -1.8270     1.6160 ho         1 AMN       0.412000
     42 C10         -2.2000    -0.0870    -2.9960 c          1 AMN       0.605100
     43 C12          3.1220     1.5320     2.2930 c3         1 AMN       0.166900
@<TRIPOS>BOND
     1     1     2 1   
     2     1    13 1   
     3     1    14 1   
     4     2     3 1   
     5     2    15 1   
     6     2    17 1   
     7     3     4 1   
     8     3    21 1   
     9     3    22 1   
    10     4     5 1   
    11     4    16 1   
    12     4    23 1   
    13     5     6 1   
    14     5    11 1   
    15     5    24 1   
    16     6     7 1   
    17     6    17 1   
    18     6    25 1   
    19     7     8 1   
    20     7    18 1   
    21     7    26 1   
    22     8     9 1   
    23     8    19 1   
    24     8    27 1   
    25     9    12 1   
    26     9    28 1   
    27     9    29 1   
    28    10    30 1   
    29    10    31 1   
    30    10    32 1   
    31    10    42 1   
    32    11    36 1   
    33    11    42 1   
    34    12    37 1   
    35    12    38 1   
    36    15    43 1   
    37    16    39 1   
    38    18    40 1   
    39    19    41 1   
    40    20    42 2   
    41    33    43 1   
    42    34    43 1   
    43    35    43 1   
@<TRIPOS>SUBSTRUCTURE
     1 AMN         1 TEMP              0 ****  ****    0 ROOT
