@<TRIPOS>MOLECULE
AMO
   48    50     1     0     0
SMALL
No Charge or Current Charge


@<TRIPOS>ATOM
      1 P            1.8070     2.2570     2.0410 p5         1 AMO       1.415800
      2 O1P          0.6790     2.9160     1.3200 o          1 AMO      -0.810500
      3 O2P          2.3480     3.1040     3.1450 o          1 AMO      -0.810500
      4 O3P          1.4960     0.7810     2.5610 os         1 AMO      -0.552500
      5 O5           2.9910     1.8960     1.0050 os         1 AMO      -0.577400
      6 C5           2.7240     1.3360    -0.2940 c3         1 AMO       0.228600
      7 C4           2.3690    -0.1820    -0.1860 c5         1 AMO       0.155300
      8 O4           0.9320    -0.3700    -0.0890 os         1 AMO      -0.411000
      9 C1           0.3730    -0.5780    -1.4090 c5         1 AMO       0.322300
     10 N9          -0.6530     0.4300    -1.6780 na         1 AMO      -0.298300
     11 C9          -1.2550     0.7440    -2.8710 ca         1 AMO       0.123500
     12 N3          -1.0470     0.2750    -4.1190 nb         1 AMO      -0.253000
     13 C2          -1.8290     0.8000    -5.0910 ca         1 AMO       0.163900
     14 N1          -2.7900     1.7400    -4.9350 nb         1 AMO      -0.346000
     15 C6          -2.9740     2.1880    -3.6840 ca         1 AMO       0.450900
     16 N6          -3.9450     3.1260    -3.5330 nv         1 AMO      -1.040900
     17 C7          -2.2080     1.6960    -2.6070 ca         1 AMO      -0.073600
     18 N7          -2.2730     2.0250    -1.2600 nc         1 AMO      -0.495100
     19 C8          -1.3180     1.2360    -0.7340 cd         1 AMO       0.397700
     20 C10          1.5940    -0.6090    -2.4020 c5         1 AMO       0.074300
     21 C3           2.7590    -1.0040    -1.4540 c5         1 AMO       0.098300
     22 O3           2.7640    -2.4200    -1.2420 oh         1 AMO      -0.712000
     23 N            0.4740    -1.7210     4.4610 n8         1 AMO      -0.993200
     24 CA           0.1490    -1.1640     3.1020 c3         1 AMO       0.104500
     25 CB          -1.2470    -1.6840     2.6660 c3         1 AMO      -0.231400
     26 CG          -1.1830    -3.1670     2.2880 c          1 AMO       0.720000
     27 OD1         -0.9130    -3.4560     1.1330 o          1 AMO      -0.754500
     28 OD2         -1.3720    -3.9950     3.1660 o          1 AMO      -0.754500
     29 C            0.2640     0.4050     2.9700 c          1 AMO       0.658100
     30 O           -0.6540     1.1730     3.2330 o          1 AMO      -0.536000
     31 O2           1.4610    -1.5550    -3.4830 oh         1 AMO      -0.705000
     32 H5'1         1.9160     1.8780    -0.8040 h1         1 AMO       0.015700
     33 H5'2         3.6240     1.4400    -0.9140 h1         1 AMO       0.015700
     34 H4           2.8570    -0.5920     0.7070 h1         1 AMO       0.095700
     35 H1          -0.1420    -1.5470    -1.4210 h2         1 AMO       0.104700
     36 H2          -1.6680     0.4280    -6.1010 h5         1 AMO       0.013100
     37 H61         -4.6380     3.2120    -4.2700 hn         1 AMO       0.521500
     38 H62         -4.2660     3.3130    -2.5860 hn         1 AMO       0.521500
     39 H8          -1.0700     1.1810     0.3190 h5         1 AMO       0.072800
     40 H2'2         1.7690     0.4000    -2.8050 h1         1 AMO       0.063700
     41 H3           3.7280    -0.6820    -1.8600 h1         1 AMO       0.045700
     42 HO'3         2.3660    -2.7740    -2.0760 ho         1 AMO       0.503000
     43 HA           0.8850    -1.5640     2.3880 h1         1 AMO       0.094700
     44 HB1         -1.9270    -1.5240     3.5110 hc         1 AMO       0.046200
     45 HB2         -1.5140    -1.1010     1.7760 hc         1 AMO       0.046200
     46 H2'1         0.7590    -1.2080    -4.0860 ho         1 AMO       0.498000
     47 H           -0.1670    -1.3130     5.1510 hn         1 AMO       0.390500
     48 HN2          0.2200    -2.7180     4.4670 hn         1 AMO       0.390500
@<TRIPOS>BOND
     1     1     2 1   
     2     1     3 1   
     3     1     4 1   
     4     1     5 1   
     5     4    29 1   
     6     5     6 1   
     7     6     7 1   
     8     6    32 1   
     9     6    33 1   
    10     7     8 1   
    11     7    21 1   
    12     7    34 1   
    13     8     9 1   
    14     9    10 1   
    15     9    20 1   
    16     9    35 1   
    17    10    11 1   
    18    10    19 1   
    19    11    12 ar  
    20    11    17 ar  
    21    12    13 ar  
    22    13    14 ar  
    23    13    36 1   
    24    14    15 ar  
    25    15    16 1   
    26    15    17 ar  
    27    16    37 1   
    28    16    38 1   
    29    17    18 1   
    30    18    19 2   
    31    19    39 1   
    32    20    21 1   
    33    20    31 1   
    34    20    40 1   
    35    21    22 1   
    36    21    41 1   
    37    22    42 1   
    38    23    24 1   
    39    23    47 1   
    40    23    48 1   
    41    24    25 1   
    42    24    29 1   
    43    24    43 1   
    44    25    26 1   
    45    25    44 1   
    46    25    45 1   
    47    26    27 1   
    48    26    28 1   
    49    29    30 2   
    50    31    46 1   
@<TRIPOS>SUBSTRUCTURE
     1 AMO         1 TEMP              0 ****  ****    0 ROOT
