@<TRIPOS>MOLECULE
AMO
   48    50     1     0     0
SMALL
abcg2


@<TRIPOS>ATOM
      1 P            2.5240     0.6460     2.5510 p5         1 AMO       1.415800
      2 O1P          2.6890     2.1150     2.3710 o          1 AMO      -0.810500
      3 O2P          3.0550    -0.1160     3.7140 o          1 AMO      -0.810500
      4 O3P          0.8710     0.2580     2.3970 os         1 AMO      -0.552500
      5 O5           2.9840    -0.1540     1.2040 os         1 AMO      -0.577400
      6 C5           3.3230     0.5300     0.0160 c3         1 AMO       0.228600
      7 C4           3.3720    -0.4830    -1.1130 c5         1 AMO       0.155300
      8 O4           2.0970    -1.0940    -1.3160 os         1 AMO      -0.411000
      9 C1           1.4760    -0.5840    -2.4640 c5         1 AMO       0.322300
     10 N9           0.1240    -0.1900    -2.1550 na         1 AMO      -0.298300
     11 C9          -1.0270    -0.7770    -2.6020 ca         1 AMO       0.123500
     12 N3          -1.1610    -1.7620    -3.4870 nb         1 AMO      -0.253000
     13 C2          -2.4320    -2.0660    -3.6870 ca         1 AMO       0.163900
     14 N1          -3.5100    -1.5410    -3.1130 nb         1 AMO      -0.346000
     15 C6          -3.3640    -0.5630    -2.2070 ca         1 AMO       0.450900
     16 N6          -4.4410    -0.0460    -1.6120 nv         1 AMO      -1.040900
     17 C7          -2.0530    -0.1180    -1.9410 ca         1 AMO      -0.073600
     18 N7          -1.5510     0.8540    -1.1160 nc         1 AMO      -0.495100
     19 C8          -0.2660     0.7740    -1.2630 cd         1 AMO       0.397700
     20 C10          2.3520     0.5740    -2.9520 c5         1 AMO       0.074300
     21 C3           3.7330     0.1470    -2.4500 c5         1 AMO       0.098300
     22 O3           4.2820    -0.8440    -3.2780 oh         1 AMO      -0.712000
     23 N           -2.0100    -0.3130     4.3840 n8         1 AMO      -0.993200
     24 CA          -1.3690    -0.0190     3.1130 c3         1 AMO       0.104500
     25 CB          -2.1440     0.9510     2.2160 c3         1 AMO      -0.231400
     26 CG          -3.4540     0.3770     1.6500 c          1 AMO       0.720000
     27 OD1         -3.7470    -0.8030     1.9090 o          1 AMO      -0.754500
     28 OD2         -4.1260     1.1660     0.9400 o          1 AMO      -0.754500
     29 C            0.0150     0.5390     3.3730 c          1 AMO       0.658100
     30 O            0.3030     1.1910     4.3460 o          1 AMO      -0.536000
     31 O2           2.2410     0.6980    -4.3390 oh         1 AMO      -0.705000
     32 H5'1         2.6110     1.3310    -0.2070 h1         1 AMO       0.015700
     33 H5'2         4.3080     0.9990     0.1040 h1         1 AMO       0.015700
     34 H4           4.0870    -1.2680    -0.8500 h1         1 AMO       0.095700
     35 H1           1.3960    -1.3530    -3.2390 h2         1 AMO       0.104700
     36 H2          -2.6250    -2.8540    -4.4080 h5         1 AMO       0.013100
     37 H61         -5.3190    -0.5120    -1.7750 hn         1 AMO       0.521500
     38 H62         -4.3480     0.4690    -0.7280 hn         1 AMO       0.521500
     39 H8           0.4460     1.3930    -0.7380 h5         1 AMO       0.072800
     40 H2'2         2.0660     1.5040    -2.4470 h1         1 AMO       0.063700
     41 H3           4.4100     1.0030    -2.3370 h1         1 AMO       0.045700
     42 HO'3         4.1540    -0.5690    -4.1940 ho         1 AMO       0.503000
     43 HA          -1.2510    -0.9620     2.5750 h1         1 AMO       0.094700
     44 HB1         -2.3610     1.8670     2.7760 hc         1 AMO       0.046200
     45 HB2         -1.5450     1.2580     1.3550 hc         1 AMO       0.046200
     46 H2'1         2.5590     1.5690    -4.5980 ho         1 AMO       0.498000
     47 H           -2.2100     0.5560     4.8670 hn         1 AMO       0.390500
     48 HN2         -2.9090    -0.7250     4.1720 hn         1 AMO       0.390500
@<TRIPOS>BOND
     1     1     2 1   
     2     1     3 1   
     3     1     4 1   
     4     1     5 1   
     5     4    29 1   
     6     5     6 1   
     7     6     7 1   
     8     6    32 1   
     9     6    33 1   
    10     7     8 1   
    11     7    21 1   
    12     7    34 1   
    13     8     9 1   
    14     9    10 1   
    15     9    20 1   
    16     9    35 1   
    17    10    11 1   
    18    10    19 1   
    19    11    12 ar  
    20    11    17 ar  
    21    12    13 ar  
    22    13    14 ar  
    23    13    36 1   
    24    14    15 ar  
    25    15    16 1   
    26    15    17 ar  
    27    16    37 1   
    28    16    38 1   
    29    17    18 1   
    30    18    19 2   
    31    19    39 1   
    32    20    21 1   
    33    20    31 1   
    34    20    40 1   
    35    21    22 1   
    36    21    41 1   
    37    22    42 1   
    38    23    24 1   
    39    23    47 1   
    40    23    48 1   
    41    24    25 1   
    42    24    29 1   
    43    24    43 1   
    44    25    26 1   
    45    25    44 1   
    46    25    45 1   
    47    26    27 1   
    48    26    28 1   
    49    29    30 2   
    50    31    46 1   
@<TRIPOS>SUBSTRUCTURE
     1 AMO         1 TEMP              0 ****  ****    0 ROOT
