@<TRIPOS>MOLECULE
AMQ
   22    22     1     0     0
SMALL
No Charge or Current Charge


@<TRIPOS>ATOM
      1 N           -1.4080     1.1520    -1.3060 n8         1 AMQ      -0.989200
      2 CA          -0.0620     0.4930    -1.4740 c3         1 AMQ       0.030500
      3 C            0.3220     0.0430    -2.9450 c          1 AMQ       0.724000
      4 OT1         -0.4460    -0.6970    -3.5490 o          1 AMQ      -0.728500
      5 OT2          1.3350     0.5090    -3.4510 o          1 AMQ      -0.728500
      6 CB           0.0780    -0.6930    -0.4840 c3         1 AMQ      -0.036100
      7 CG           0.1490    -0.2710     0.9680 cc         1 AMQ      -0.181300
      8 CD1         -0.9270     0.0200     1.8280 cc         1 AMQ       0.500300
      9 CD2          1.2280    -0.0920     1.7770 cd         1 AMQ       0.177300
     10 CE2          2.6960    -0.2440     1.4880 c3         1 AMQ      -0.131400
     11 OE1         -2.1990    -0.0260     1.4300 oh         1 AMQ      -0.621300
     12 NE1         -0.6070     0.3520     3.0570 nd         1 AMQ      -0.495300
     13 OE2          0.8290     0.2810     3.0380 os         1 AMQ      -0.088700
     14 H           -2.1030     0.5940    -1.8170 hn         1 AMQ       0.380000
     15 HN2         -1.6990     1.0390    -0.3250 hn         1 AMQ       0.380000
     16 HA           0.6900     1.2360    -1.1750 h1         1 AMQ       0.037700
     17 HB1          0.9920    -1.2470    -0.7350 hc         1 AMQ       0.060700
     18 HB2         -0.7480    -1.4000    -0.6350 hc         1 AMQ       0.060700
     19 HE21         3.3060     0.1500     2.3090 hc         1 AMQ       0.059700
     20 HE22         2.9580    -1.2990     1.3480 hc         1 AMQ       0.059700
     21 HE23         2.9710     0.2980     0.5750 hc         1 AMQ       0.059700
     22 HE1         -2.6990     0.1900     2.2440 ho         1 AMQ       0.471000
@<TRIPOS>BOND
     1     1     2 1   
     2     1    14 1   
     3     1    15 1   
     4     2     3 1   
     5     2     6 1   
     6     2    16 1   
     7     3     4 1   
     8     3     5 1   
     9     6     7 1   
    10     6    17 1   
    11     6    18 1   
    12     7     8 1   
    13     7     9 2   
    14     8    11 1   
    15     8    12 2   
    16     9    10 1   
    17     9    13 1   
    18    10    19 1   
    19    10    20 1   
    20    10    21 1   
    21    11    22 1   
    22    12    13 1   
@<TRIPOS>SUBSTRUCTURE
     1 AMQ         1 TEMP              0 ****  ****    0 ROOT
