@<TRIPOS>MOLECULE
AMQ
   22    22     1     0     0
SMALL
abcg2


@<TRIPOS>ATOM
      1 N           -0.9180     1.3470    -1.3110 n8         1 AMQ      -0.989200
      2 CA           0.1330     0.3630    -1.4760 c3         1 AMQ       0.030500
      3 C            0.1330    -0.2270    -2.9040 c          1 AMQ       0.724000
      4 OT1         -0.9000    -0.0810    -3.5860 o          1 AMQ      -0.728500
      5 OT2          1.1670    -0.8400    -3.2360 o          1 AMQ      -0.728500
      6 CB           0.0850    -0.8110    -0.4730 c3         1 AMQ      -0.036100
      7 CG           0.0890    -0.3670     0.9500 cc         1 AMQ      -0.181300
      8 CD1         -1.0130    -0.2270     1.8370 cc         1 AMQ       0.500300
      9 CD2          1.1280     0.0540     1.7150 cd         1 AMQ       0.177300
     10 CE2          2.5740     0.1940     1.4360 c3         1 AMQ      -0.131400
     11 OE1         -2.2650    -0.5260     1.5160 oh         1 AMQ      -0.621300
     12 NE1         -0.6660     0.2220     3.0080 nd         1 AMQ      -0.495300
     13 OE2          0.6920     0.4010     2.9320 os         1 AMQ      -0.088700
     14 H           -1.8010     0.9480    -1.6010 hn         1 AMQ       0.380000
     15 HN2         -1.0110     1.6110    -0.3370 hn         1 AMQ       0.380000
     16 HA           1.0940     0.8700    -1.3240 h1         1 AMQ       0.037700
     17 HB1          0.9370    -1.4680    -0.6560 hc         1 AMQ       0.060700
     18 HB2         -0.8090    -1.4140    -0.6610 hc         1 AMQ       0.060700
     19 HE21         3.1770    -0.3060     2.1950 hc         1 AMQ       0.059700
     20 HE22         2.8140    -0.2430     0.4690 hc         1 AMQ       0.059700
     21 HE23         2.8730     1.2430     1.4120 hc         1 AMQ       0.059700
     22 HE1         -2.8560    -0.3540     2.2610 ho         1 AMQ       0.471000
@<TRIPOS>BOND
     1     1     2 1   
     2     1    14 1   
     3     1    15 1   
     4     2     3 1   
     5     2     6 1   
     6     2    16 1   
     7     3     4 1   
     8     3     5 1   
     9     6     7 1   
    10     6    17 1   
    11     6    18 1   
    12     7     8 1   
    13     7     9 2   
    14     8    11 1   
    15     8    12 2   
    16     9    10 1   
    17     9    13 1   
    18    10    19 1   
    19    10    20 1   
    20    10    21 1   
    21    11    22 1   
    22    12    13 1   
@<TRIPOS>SUBSTRUCTURE
     1 AMQ         1 TEMP              0 ****  ****    0 ROOT
