@<TRIPOS>MOLECULE
AMR
   23    23     1     0     0
SMALL
abcg2


@<TRIPOS>ATOM
      1 N1           0.5570    -0.0210    -0.4760 nb         1 AMR      -0.574000
      2 C1          -0.6190    -0.0040     0.1560 ca         1 AMR       0.070500
      3 C3          -0.6050    -0.0060     1.6220 c          1 AMR       0.564600
      4 N5           0.6440    -0.0220     2.1700 ns         1 AMR      -0.467400
      5 C6           1.0290    -0.0180     3.5160 c2         1 AMR       0.692800
      6 N7           0.0500    -0.2360     4.4270 nv         1 AMR      -1.050200
      7 N6           2.2470     0.1280     3.8730 n2         1 AMR      -0.901100
      8 O1          -1.6390     0.0110     2.2850 o          1 AMR      -0.649100
      9 C2          -1.8090     0.0190    -0.6180 ca         1 AMR       0.707900
     10 N4          -3.0330     0.0300    -0.0900 nv         1 AMR      -1.053900
     11 N3          -1.7370     0.0280    -1.9540 nb         1 AMR      -0.851000
     12 C4          -0.5630     0.0110    -2.5550 ca         1 AMR       0.685900
     13 N2          -0.5170     0.0120    -3.8860 nv         1 AMR      -1.061900
     14 C5           0.6220    -0.0170    -1.7580 ca         1 AMR       0.265000
     15 CL1          2.1790    -0.0430    -2.5230 cl         1 AMR      -0.170000
     16 HN5          1.4030     0.0040     1.5020 hn         1 AMR       0.348500
     17 HN71         0.2960    -0.0390     5.3820 hn         1 AMR       0.497000
     18 HN72        -0.9080    -0.0810     4.1640 hn         1 AMR       0.497000
     19 HN6          2.8630     0.2450     3.0780 hn         1 AMR       0.389400
     20 HN41        -3.8330     0.0640    -0.6980 hn         1 AMR       0.520500
     21 HN42        -3.1610     0.0390     0.9080 hn         1 AMR       0.520500
     22 HN21        -1.3730     0.0960    -4.4090 hn         1 AMR       0.509500
     23 HN22         0.3490     0.0800    -4.3910 hn         1 AMR       0.509500
@<TRIPOS>BOND
     1     1     2 ar  
     2     1    14 ar  
     3     2     3 1   
     4     2     9 ar  
     5     3     4 1   
     6     3     8 2   
     7     4     5 1   
     8     4    16 1   
     9     5     6 1   
    10     5     7 2   
    11     6    17 1   
    12     6    18 1   
    13     7    19 1   
    14     9    10 1   
    15     9    11 ar  
    16    10    20 1   
    17    10    21 1   
    18    11    12 ar  
    19    12    13 1   
    20    12    14 ar  
    21    13    22 1   
    22    13    23 1   
    23    14    15 1   
@<TRIPOS>SUBSTRUCTURE
     1 AMR         1 TEMP              0 ****  ****    0 ROOT
