@<TRIPOS>MOLECULE
AMR
   23    23     1     0     0
SMALL
No Charge or Current Charge


@<TRIPOS>ATOM
      1 N1           0.7540    -0.0840    -0.4800 nb         1 AMR      -0.574000
      2 C1          -0.4770    -0.0340     0.1370 ca         1 AMR       0.070500
      3 C3          -0.5360     0.0450     1.6520 c          1 AMR       0.564600
      4 N5           0.6880    -0.0510     2.2760 ns         1 AMR      -0.467400
      5 C6           1.0000     0.0140     3.6030 c2         1 AMR       0.692800
      6 N7           0.0730    -0.5300     4.3810 nv         1 AMR      -1.050200
      7 N6           2.1090     0.3830     4.0520 n2         1 AMR      -0.901100
      8 O1          -1.5780     0.2040     2.2840 o          1 AMR      -0.649100
      9 C2          -1.6900    -0.0320    -0.6320 ca         1 AMR       0.707900
     10 N4          -2.9450    -0.0020    -0.1770 nv         1 AMR      -1.053900
     11 N3          -1.7480    -0.0570    -1.9650 nb         1 AMR      -0.851000
     12 C4          -0.5510    -0.1090    -2.5500 ca         1 AMR       0.685900
     13 N2          -0.7360    -0.1290    -3.8820 nv         1 AMR      -1.061900
     14 C5           0.7020    -0.1240    -1.8400 ca         1 AMR       0.265000
     15 Cl1          2.2550    -0.1810    -2.6760 cl         1 AMR      -0.170000
     16 HN5          1.4660    -0.1320     1.6380 hn         1 AMR       0.348500
     17 HN71         0.1610    -0.2080     5.3360 hn         1 AMR       0.497000
     18 HN72        -0.8520    -0.3960     3.9770 hn         1 AMR       0.497000
     19 HN6          2.6850     0.7150     3.2670 hn         1 AMR       0.389400
     20 HN41        -3.6210     0.3300    -0.8510 hn         1 AMR       0.520500
     21 HN42        -3.0620     0.2910     0.7910 hn         1 AMR       0.520500
     22 HN21        -1.6720     0.1400    -4.1560 hn         1 AMR       0.509500
     23 HN22         0.0190     0.2270    -4.4600 hn         1 AMR       0.509500
@<TRIPOS>BOND
     1     1     2 ar  
     2     1    14 ar  
     3     2     3 1   
     4     2     9 ar  
     5     3     4 1   
     6     3     8 2   
     7     4     5 1   
     8     4    16 1   
     9     5     6 1   
    10     5     7 2   
    11     6    17 1   
    12     6    18 1   
    13     7    19 1   
    14     9    10 1   
    15     9    11 ar  
    16    10    20 1   
    17    10    21 1   
    18    11    12 ar  
    19    12    13 1   
    20    12    14 ar  
    21    13    22 1   
    22    13    23 1   
    23    14    15 1   
@<TRIPOS>SUBSTRUCTURE
     1 AMR         1 TEMP              0 ****  ****    0 ROOT
