@<TRIPOS>MOLECULE
AMT
   10    10     1     0     0
SMALL
No Charge or Current Charge


@<TRIPOS>ATOM
      1 S1          -1.2110     0.0080    -0.2450 ss         1 AMT      -0.118400
      2 C2           0.1890     0.0940     0.7830 cc         1 AMT       0.690300
      3 N3           1.3680     0.0680     0.2270 nd         1 AMT      -0.725000
      4 C4           1.2100    -0.0200    -1.1510 cd         1 AMT       0.316900
      5 C5          -0.0980    -0.0630    -1.5850 cc         1 AMT      -0.277000
      6 N            0.1310     0.1680     2.1150 nv         1 AMT      -1.034900
      7 H4           2.0850    -0.0510    -1.7900 h4         1 AMT       0.039100
      8 H5          -0.4680    -0.1320    -2.5990 h4         1 AMT       0.161000
      9 HN1          0.9970    -0.0590     2.5890 hn         1 AMT       0.474500
     10 HN2         -0.7240    -0.1500     2.5560 hn         1 AMT       0.474500
@<TRIPOS>BOND
     1     1     2 1   
     2     1     5 1   
     3     2     3 2   
     4     2     6 1   
     5     3     4 1   
     6     4     5 2   
     7     4     7 1   
     8     5     8 1   
     9     6     9 1   
    10     6    10 1   
@<TRIPOS>SUBSTRUCTURE
     1 AMT         1 TEMP              0 ****  ****    0 ROOT
