@<TRIPOS>MOLECULE
AMT
   10    10     1     0     0
SMALL
bcc


@<TRIPOS>ATOM
      1 S1          -1.1490    -0.0070    -0.2370 ss         1 AMT      -0.263300
      2 C2           0.2500     0.0620     0.8020 cc         1 AMT       0.690300
      3 N3           1.3860     0.0490     0.1740 nd         1 AMT      -0.725000
      4 C4           1.1900    -0.0190    -1.1790 cd         1 AMT       0.382200
      5 C5          -0.0910    -0.0590    -1.6060 cc         1 AMT      -0.215400
      6 N            0.1160     0.1800     2.1450 nv         1 AMT      -0.924500
      7 H4           2.0490    -0.0400    -1.8360 h4         1 AMT       0.039100
      8 H5          -0.4710    -0.1190    -2.6130 h4         1 AMT       0.179000
      9 HN1          0.9390    -0.0450     2.6820 hn         1 AMT       0.419300
     10 HN2         -0.7400    -0.1400     2.5680 hn         1 AMT       0.419300
@<TRIPOS>BOND
     1     1     2 1   
     2     1     5 1   
     3     2     3 2   
     4     2     6 1   
     5     3     4 1   
     6     4     5 2   
     7     4     7 1   
     8     5     8 1   
     9     6     9 1   
    10     6    10 1   
@<TRIPOS>SUBSTRUCTURE
     1 AMT         1 TEMP              0 ****  ****    0 ROOT
