@<TRIPOS>MOLECULE
AMU
   38    38     1     0     0
SMALL
bcc


@<TRIPOS>ATOM
      1 C1           3.6500    20.9990    11.0310 c6         1 AMU       0.330900
      2 C2           3.2940    22.4420    11.3880 c6         1 AMU       0.061700
      3 C3           4.5580    23.3100    11.4840 c6         1 AMU       0.150100
      4 C4           5.5870    22.6500    12.3960 c6         1 AMU       0.112100
      5 C5           5.8090    21.2010    11.9360 c6         1 AMU       0.128100
      6 C6           6.8130    20.4380    12.7730 c3         1 AMU       0.142400
      7 C7           1.0990    23.3290    10.6910 c          1 AMU       0.697100
      8 C8           0.3590    23.9740     9.5450 c3         1 AMU      -0.177100
      9 C9           4.2020    25.6390    11.0270 c3         1 AMU       0.009100
     10 C10          2.9950    26.5770    11.2670 c          1 AMU       0.928600
     11 C11          5.5160    26.4100    11.0820 c3         1 AMU      -0.091100
     12 O1           2.5080    20.2330    11.1000 oh         1 AMU      -0.554800
     13 O3           4.2200    24.5770    11.9670 os         1 AMU      -0.367600
     14 O4           6.7830    23.3850    12.3150 oh         1 AMU      -0.586800
     15 O5           4.5820    20.5010    11.9580 os         1 AMU      -0.435600
     16 O6           6.4130    20.4510    14.1220 oh         1 AMU      -0.578800
     17 O7           0.5590    23.1340    11.7700 o          1 AMU      -0.592100
     18 O10          2.8710    27.4740    10.4070 o          1 AMU      -0.819800
     19 O11          2.2780    26.3790    12.2620 o          1 AMU      -0.819800
     20 N2           2.3790    23.0040    10.4290 ns         1 AMU      -0.557900
     21 H1           4.0970    20.9750    10.0210 h2         1 AMU      -0.003300
     22 H2           2.7990    22.4360    12.3630 h1         1 AMU       0.126700
     23 H3           5.0050    23.3760    10.4780 h1         1 AMU       0.021700
     24 H4           5.1890    22.6440    13.4180 h1         1 AMU       0.079700
     25 H5           6.2120    21.2280    10.9100 h1         1 AMU       0.033700
     26 H61          6.8880    19.4170    12.3770 h1         1 AMU       0.019700
     27 H62          7.7970    20.8990    12.6290 h1         1 AMU       0.019700
     28 H81          0.9380    24.0350     8.6250 hc         1 AMU       0.055033
     29 H82         -0.5570    23.4200     9.3430 hc         1 AMU       0.055033
     30 H83          0.0710    24.9850     9.8350 hc         1 AMU       0.055033
     31 H9           4.0880    25.2320    10.0130 h1         1 AMU       0.003700
     32 H111         6.3640    25.7540    10.8810 hc         1 AMU       0.023367
     33 H112         5.5250    27.2090    10.3420 hc         1 AMU       0.023367
     34 H113         5.6670    26.8570    12.0660 hc         1 AMU       0.023367
     35 HO1          2.6470    19.4040    10.6280 ho         1 AMU       0.397000
     36 HO4          7.2730    23.2750    13.1340 ho         1 AMU       0.397000
     37 HO6          7.1040    20.0340    14.6450 ho         1 AMU       0.392000
     38 HN2          2.7380    23.1930     9.5060 hn         1 AMU       0.297500
@<TRIPOS>BOND
     1     1     2 1   
     2     1    12 1   
     3     1    15 1   
     4     1    21 1   
     5     2     3 1   
     6     2    20 1   
     7     2    22 1   
     8     3     4 1   
     9     3    13 1   
    10     3    23 1   
    11     4     5 1   
    12     4    14 1   
    13     4    24 1   
    14     5     6 1   
    15     5    15 1   
    16     5    25 1   
    17     6    16 1   
    18     6    26 1   
    19     6    27 1   
    20     7     8 1   
    21     7    17 2   
    22     7    20 1   
    23     8    28 1   
    24     8    29 1   
    25     8    30 1   
    26     9    10 1   
    27     9    11 1   
    28     9    13 1   
    29     9    31 1   
    30    10    18 1   
    31    10    19 1   
    32    11    32 1   
    33    11    33 1   
    34    11    34 1   
    35    12    35 1   
    36    14    36 1   
    37    16    37 1   
    38    20    38 1   
@<TRIPOS>SUBSTRUCTURE
     1 AMU         1 TEMP              0 ****  ****    0 ROOT
