@<TRIPOS>MOLECULE
AMU
   38    38     1     0     0
SMALL
No Charge or Current Charge


@<TRIPOS>ATOM
      1 C1           3.8530    21.1230    10.8070 c6         1 AMU       0.377300
      2 C2           3.4280    22.5450    11.3040 c6         1 AMU       0.061700
      3 C3           4.7270    23.3640    11.6190 c6         1 AMU       0.173300
      4 C4           5.6600    22.5640    12.5810 c6         1 AMU       0.135300
      5 C5           5.9430    21.1450    12.0060 c6         1 AMU       0.151300
      6 C6           6.7980    20.2520    12.9700 c3         1 AMU       0.165600
      7 C7           1.1850    23.2250    10.3080 c          1 AMU       0.630100
      8 C8           0.5490    23.9240     9.1130 c3         1 AMU      -0.177100
      9 C9           3.8280    25.7560    11.5220 c3         1 AMU       0.032300
     10 C10          3.6650    27.0390    12.4190 c          1 AMU       0.718000
     11 C11          4.6290    26.0840    10.2340 c3         1 AMU      -0.091100
     12 O1           2.7460    20.2600    10.6580 oh         1 AMU      -0.617000
     13 O3           4.4940    24.6680    12.2360 os         1 AMU      -0.414000
     14 O4           6.8720    23.3120    12.8220 oh         1 AMU      -0.709000
     15 O5           4.6850    20.4690    11.7620 os         1 AMU      -0.482000
     16 O6           6.1330    19.9210    14.2070 oh         1 AMU      -0.701000
     17 O7           0.5250    22.7410    11.2150 o          1 AMU      -0.592100
     18 O10          2.9440    27.9400    12.0060 o          1 AMU      -0.714500
     19 O11          4.2120    27.0840    13.5160 o          1 AMU      -0.714500
     20 N2           2.5610    23.2020    10.2920 ns         1 AMU      -0.490900
     21 H1           4.3890    21.2020     9.8500 h2         1 AMU      -0.003300
     22 H2           2.8630    22.4240    12.2390 h1         1 AMU       0.126700
     23 H3           5.2780    23.5120    10.6800 h1         1 AMU       0.021700
     24 H4           5.1170    22.4310    13.5290 h1         1 AMU       0.079700
     25 H5           6.4840    21.2370    11.0530 h1         1 AMU       0.033700
     26 H61          7.0510    19.3300    12.4300 h1         1 AMU       0.019700
     27 H62          7.7440    20.7680    13.1780 h1         1 AMU       0.019700
     28 H81          0.9070    23.4510     8.1910 hc         1 AMU       0.055033
     29 H82         -0.5450    23.9360     9.1640 hc         1 AMU       0.055033
     30 H83          0.9620    24.9360     9.0310 hc         1 AMU       0.055033
     31 H9           2.8110    25.4640    11.2410 h1         1 AMU       0.003700
     32 H111         4.5860    25.2610     9.5120 hc         1 AMU       0.023367
     33 H112         4.2130    26.9690     9.7390 hc         1 AMU       0.023367
     34 H113         5.6800    26.2910    10.4730 hc         1 AMU       0.023367
     35 HO1          3.0320    19.4510    11.1290 ho         1 AMU       0.436000
     36 HO4          6.5760    24.2470    12.9380 ho         1 AMU       0.496000
     37 HO6          6.7300    19.3110    14.6970 ho         1 AMU       0.491000
     38 HN2          3.0030    23.6400     9.4930 hn         1 AMU       0.297500
@<TRIPOS>BOND
     1     1     2 1   
     2     1    12 1   
     3     1    15 1   
     4     1    21 1   
     5     2     3 1   
     6     2    20 1   
     7     2    22 1   
     8     3     4 1   
     9     3    13 1   
    10     3    23 1   
    11     4     5 1   
    12     4    14 1   
    13     4    24 1   
    14     5     6 1   
    15     5    15 1   
    16     5    25 1   
    17     6    16 1   
    18     6    26 1   
    19     6    27 1   
    20     7     8 1   
    21     7    17 2   
    22     7    20 1   
    23     8    28 1   
    24     8    29 1   
    25     8    30 1   
    26     9    10 1   
    27     9    11 1   
    28     9    13 1   
    29     9    31 1   
    30    10    18 1   
    31    10    19 1   
    32    11    32 1   
    33    11    33 1   
    34    11    34 1   
    35    12    35 1   
    36    14    36 1   
    37    16    37 1   
    38    20    38 1   
@<TRIPOS>SUBSTRUCTURE
     1 AMU         1 TEMP              0 ****  ****    0 ROOT
