@<TRIPOS>MOLECULE
AMV
   41    41     1     0     0
SMALL
No Charge or Current Charge


@<TRIPOS>ATOM
      1 C1           4.6610    -1.1160     0.3300 c6         1 AMV       0.373300
      2 C2           3.5870    -0.4640     1.2630 c6         1 AMV       0.070700
      3 C3           3.5790     1.0850     1.0110 c6         1 AMV       0.182300
      4 C4           5.0200     1.6650     1.1490 c6         1 AMV       0.133300
      5 C5           6.0000     0.8950     0.2240 c6         1 AMV       0.107300
      6 C6           7.4790     1.3530     0.3910 c3         1 AMV       0.166600
      7 C7           1.7240    -2.1210     1.7720 c          1 AMV       0.639100
      8 C8           0.3730    -2.6190     1.2790 c3         1 AMV      -0.177100
      9 C9           1.2660     1.7150     1.9020 c3         1 AMV       0.036300
     10 C10          0.5770     2.6120     2.9970 c          1 AMV       0.701000
     11 C11          0.7350     2.0720     0.4890 c3         1 AMV      -0.080100
     12 O1           4.7730    -2.5250     0.5820 os         1 AMV      -0.412000
     13 O3           2.7220     1.8500     1.9140 os         1 AMV      -0.434000
     14 O4           5.0210     3.0800     0.8780 oh         1 AMV      -0.706000
     15 O5           5.9530    -0.5160     0.5450 os         1 AMV      -0.504000
     16 O6           8.3700     0.3500    -0.1150 oh         1 AMV      -0.725000
     17 O7           2.2770    -2.5860     2.7590 o          1 AMV      -0.609100
     18 O11          1.2470     3.4230     3.6260 o          1 AMV      -0.719500
     19 N2           2.2630    -1.0960     1.0310 ns         1 AMV      -0.490900
     20 C12          5.5850    -3.2740    -0.3350 c3         1 AMV       0.150900
     21 OXT         -0.6140     2.4290     3.2220 o          1 AMV      -0.719500
     22 H1           4.3630    -0.9650    -0.7180 h2         1 AMV       0.008700
     23 H2           3.8930    -0.6420     2.3040 h1         1 AMV       0.120700
     24 H3           3.2530     1.2660    -0.0230 h1         1 AMV       0.028700
     25 HA           1.7150    -0.7870     0.2380 hn         1 AMV       0.307500
     26 H4           5.3440     1.4960     2.1870 h1         1 AMV       0.059700
     27 H5           5.7080     1.0310    -0.8290 h1         1 AMV       0.050700
     28 HB           4.2090     3.4250     1.3210 ho         1 AMV       0.495000
     29 H6C1         7.6730     1.5230     1.4590 h1         1 AMV       0.044700
     30 H6C2         7.6230     2.3090    -0.1310 h1         1 AMV       0.044700
     31 H6           7.8620    -0.4870     0.0250 ho         1 AMV       0.513000
     32 H8C1        -0.0320    -3.4260     1.9000 hc         1 AMV       0.059700
     33 H8C2        -0.3180    -1.7710     1.2160 hc         1 AMV       0.059700
     34 H8C3         0.4660    -2.9230     0.2300 hc         1 AMV       0.059700
     35 H9           0.9730     0.6870     2.1410 h1         1 AMV       0.011700
     36 H111        -0.3610     2.0840     0.4840 hc         1 AMV       0.025367
     37 H112         1.0520     1.3370    -0.2590 hc         1 AMV       0.025367
     38 H113         1.0860     3.0640     0.1810 hc         1 AMV       0.025367
     39 H121         5.5750    -4.3380    -0.0700 h1         1 AMV       0.025033
     40 H122         6.6270    -2.9270    -0.3100 h1         1 AMV       0.025033
     41 H123         5.2080    -3.1720    -1.3600 h1         1 AMV       0.025033
@<TRIPOS>BOND
     1     1     2 1   
     2     1    12 1   
     3     1    15 1   
     4     1    22 1   
     5     2     3 1   
     6     2    19 1   
     7     2    23 1   
     8     3     4 1   
     9     3    13 1   
    10     3    24 1   
    11     4     5 1   
    12     4    14 1   
    13     4    26 1   
    14     5     6 1   
    15     5    15 1   
    16     5    27 1   
    17     6    16 1   
    18     6    29 1   
    19     6    30 1   
    20     7     8 1   
    21     7    17 2   
    22     7    19 1   
    23     8    32 1   
    24     8    33 1   
    25     8    34 1   
    26     9    10 1   
    27     9    11 1   
    28     9    13 1   
    29     9    35 1   
    30    10    18 1   
    31    10    21 1   
    32    11    36 1   
    33    11    37 1   
    34    11    38 1   
    35    12    20 1   
    36    14    28 1   
    37    16    31 1   
    38    19    25 1   
    39    20    39 1   
    40    20    40 1   
    41    20    41 1   
@<TRIPOS>SUBSTRUCTURE
     1 AMV         1 TEMP              0 ****  ****    0 ROOT
