@<TRIPOS>MOLECULE
AMV
   41    41     1     0     0
SMALL
bcc


@<TRIPOS>ATOM
      1 C1           4.7160    -1.2430     0.5210 c6         1 AMV       0.326900
      2 C2           3.6010    -0.5460     1.3020 c6         1 AMV       0.070700
      3 C3           3.4680     0.9090     0.8330 c6         1 AMV       0.159100
      4 C4           4.8190     1.6180     0.8250 c6         1 AMV       0.110100
      5 C5           5.8530     0.7640     0.0850 c6         1 AMV       0.084100
      6 C6           7.2530     1.3480     0.1500 c3         1 AMV       0.143400
      7 C7           1.7600    -1.9710     2.1010 c          1 AMV       0.706100
      8 C8           0.3930    -2.4980     1.7460 c3         1 AMV      -0.177100
      9 C9           1.2790     1.8590     1.1580 c3         1 AMV       0.013100
     10 C10          0.2070     1.0620     1.9310 c          1 AMV       0.911600
     11 C11          0.9920     3.3510     1.2610 c3         1 AMV      -0.080100
     12 O1           4.8980    -2.5080     1.0220 os         1 AMV      -0.365600
     13 O3           2.5880     1.6230     1.6470 os         1 AMV      -0.387600
     14 O4           4.6500     2.8610     0.1860 oh         1 AMV      -0.583800
     15 O5           5.9130    -0.5210     0.6710 os         1 AMV      -0.457600
     16 O6           8.1900     0.5840    -0.5680 oh         1 AMV      -0.602800
     17 O7           2.2780    -2.1980     3.1840 o          1 AMV      -0.609100
     18 O11          0.4660     0.7230     3.0980 o          1 AMV      -0.824800
     19 N2           2.3480    -1.2320     1.1400 ns         1 AMV      -0.557900
     20 C12          5.6960    -3.3520     0.2150 c3         1 AMV       0.127700
     21 OXT         -0.8600     0.8810     1.3090 o          1 AMV      -0.824800
     22 H1           4.4470    -1.2790    -0.5530 h2         1 AMV       0.008700
     23 H2           3.8630    -0.5620     2.3620 h1         1 AMV       0.120700
     24 H3           3.1080     0.8920    -0.2100 h1         1 AMV       0.028700
     25 HA           1.8500    -1.0960     0.2750 hn         1 AMV       0.307500
     26 H4           5.1520     1.7460     1.8660 h1         1 AMV       0.059700
     27 H5           5.5490     0.6800    -0.9720 h1         1 AMV       0.050700
     28 HB           5.2500     3.4990     0.5810 ho         1 AMV       0.396000
     29 H6C1         7.5430     1.4660     1.2040 h1         1 AMV       0.044700
     30 H6C2         7.2440     2.3430    -0.2960 h1         1 AMV       0.044700
     31 H6           8.2030    -0.3000    -0.1890 ho         1 AMV       0.414000
     32 H8C1         0.2990    -3.5330     2.0690 hc         1 AMV       0.059700
     33 H8C2        -0.3520    -1.9080     2.2810 hc         1 AMV       0.059700
     34 H8C3         0.1680    -2.4410     0.6830 hc         1 AMV       0.059700
     35 H9           1.2230     1.5720     0.0990 h1         1 AMV       0.011700
     36 H111        -0.0030     3.5760     0.8780 hc         1 AMV       0.025367
     37 H112         1.7190     3.9250     0.6870 hc         1 AMV       0.025367
     38 H113         1.0350     3.6860     2.3000 hc         1 AMV       0.025367
     39 H121         5.6350    -4.3550     0.6340 h1         1 AMV       0.025033
     40 H122         6.7450    -3.0460     0.2000 h1         1 AMV       0.025033
     41 H123         5.3290    -3.3830    -0.8160 h1         1 AMV       0.025033
@<TRIPOS>BOND
     1     1     2 1   
     2     1    12 1   
     3     1    15 1   
     4     1    22 1   
     5     2     3 1   
     6     2    19 1   
     7     2    23 1   
     8     3     4 1   
     9     3    13 1   
    10     3    24 1   
    11     4     5 1   
    12     4    14 1   
    13     4    26 1   
    14     5     6 1   
    15     5    15 1   
    16     5    27 1   
    17     6    16 1   
    18     6    29 1   
    19     6    30 1   
    20     7     8 1   
    21     7    17 2   
    22     7    19 1   
    23     8    32 1   
    24     8    33 1   
    25     8    34 1   
    26     9    10 1   
    27     9    11 1   
    28     9    13 1   
    29     9    35 1   
    30    10    18 1   
    31    10    21 1   
    32    11    36 1   
    33    11    37 1   
    34    11    38 1   
    35    12    20 1   
    36    14    28 1   
    37    16    31 1   
    38    19    25 1   
    39    20    39 1   
    40    20    40 1   
    41    20    41 1   
@<TRIPOS>SUBSTRUCTURE
     1 AMV         1 TEMP              0 ****  ****    0 ROOT
