@<TRIPOS>MOLECULE
AMX
   86    88     1     0     0
SMALL
abcg2


@<TRIPOS>ATOM
      1 N1A         19.5400    -8.0620    12.7000 nb         1 AMX      -0.343000
      2 C2A         18.6070    -8.1470    13.6550 ca         1 AMX       0.109900
      3 N3A         17.6640    -9.0740    13.8070 nb         1 AMX      -0.141000
      4 C4A         17.7160   -10.0030    12.8480 ca         1 AMX       0.123500
      5 C5A         18.6260   -10.0370    11.7920 ca         1 AMX      -0.078600
      6 C6A         19.5810    -9.0070    11.7420 ca         1 AMX       0.389900
      7 N6A         20.5410    -8.9420    10.7990 nv         1 AMX      -1.087900
      8 N7A         18.3810   -11.1370    10.9860 nc         1 AMX      -0.671100
      9 C8A         17.3530   -11.7440    11.5410 cd         1 AMX       0.502700
     10 N9A         16.9100   -11.1070    12.6720 na         1 AMX      -0.240300
     11 C1B         15.7700   -11.4920    13.4890 c5         1 AMX       0.273300
     12 C2B         14.4090   -11.2060    12.8320 c5         1 AMX       0.156300
     13 O2B         13.9960    -9.8810    13.0230 oh         1 AMX      -0.822000
     14 C3B         13.5300   -12.3040    13.4610 c5         1 AMX       0.195300
     15 O3B         13.0830   -11.9380    14.7550 os         1 AMX      -0.612400
     16 P3B         11.5530   -11.2530    14.9120 p5         1 AMX       1.298900
     17 O7A         11.6280    -9.9830    14.0420 o          1 AMX      -0.909167
     18 O8A         11.4780   -10.9830    16.4000 o          1 AMX      -0.909167
     19 O9A         10.5690   -12.2780    14.3750 o          1 AMX      -0.909167
     20 C4B         14.5090   -13.4740    13.5870 c5         1 AMX       0.145300
     21 O4B         15.8300   -12.8860    13.7030 os         1 AMX      -0.502000
     22 C5B         14.4820   -14.4650    12.4430 c3         1 AMX       0.222600
     23 O5B         14.5210   -13.7660    11.2020 os         1 AMX      -0.604400
     24 P1A         15.1530   -14.4800     9.8850 p5         1 AMX       1.503800
     25 O1A         14.3200   -15.6540     9.4840 o          1 AMX      -0.886000
     26 O2A         16.6250   -14.6540    10.0880 o          1 AMX      -0.886000
     27 O3A         14.9650   -13.2450     8.8620 os         1 AMX      -0.728800
     28 P2A         13.6580   -12.7560     7.9980 p5         1 AMX       1.480800
     29 O4A         13.6780   -13.4630     6.6820 o          1 AMX      -0.850500
     30 O5A         12.4360   -12.7670     8.8520 o          1 AMX      -0.850500
     31 O6A         14.0700   -11.2050     7.8110 os         1 AMX      -0.595400
     32 CBP         15.7220    -9.4940     7.3100 c3         1 AMX      -0.048000
     33 CCP         15.1100   -10.8360     6.8980 c3         1 AMX       0.244600
     34 CDP         16.6510    -9.0500     6.1740 c3         1 AMX      -0.075600
     35 CEP         14.6110    -8.4560     7.5000 c3         1 AMX      -0.075600
     36 CAP         16.5110    -9.7180     8.6300 c3         1 AMX       0.111300
     37 OAP         17.6940   -10.4500     8.3340 oh         1 AMX      -0.712000
     38 C9P         16.8160    -8.4100     9.3670 c          1 AMX       0.550100
     39 O9P         16.0550    -7.9730    10.2330 o          1 AMX      -0.575100
     40 N8P         17.9410    -7.7850     8.9910 ns         1 AMX      -0.525900
     41 C7P         18.3820    -6.5150     9.5450 c3         1 AMX       0.125000
     42 C6P         17.4930    -5.3430     9.1380 c3         1 AMX      -0.173400
     43 C5P         17.4610    -5.1100     7.6380 c          1 AMX       0.609100
     44 O5P         18.4830    -5.1650     6.9480 o          1 AMX      -0.656100
     45 N4P         16.2540    -4.8010     7.1330 ns         1 AMX      -0.504900
     46 C3P         16.0080    -4.4940     5.7320 c3         1 AMX       0.112000
     47 C2P         15.6970    -5.7360     4.8980 c3         1 AMX      -0.099400
     48 C1          15.2910    -5.3920     3.4690 c3         1 AMX      -0.146400
     49 C2          13.9280    -4.7250     3.3840 c          1 AMX       0.585100
     50 O2          12.9860    -5.0750     4.0960 o          1 AMX      -0.582100
     51 N2          13.8060    -3.7510     2.4630 nt         1 AMX      -0.628000
     52 H2A         18.6250    -7.3560    14.3980 h5         1 AMX       0.011100
     53 H61A        20.4670    -9.5230     9.9800 hn         1 AMX       0.473000
     54 H62A        21.0800    -8.0950    10.7210 hn         1 AMX       0.473000
     55 H8A         16.9020   -12.6560    11.1770 h5         1 AMX       0.150800
     56 H1B         15.8580   -10.9350    14.4250 h2         1 AMX       0.087700
     57 H2B         14.5040   -11.4300    11.7660 h1         1 AMX       0.067700
     58 HO2A        13.0660    -9.8780    13.4280 ho         1 AMX       0.609000
     59 H3B         12.6850   -12.5610    12.8210 h1         1 AMX       0.104700
     60 H4B         14.3060   -14.0170    14.5120 h1         1 AMX       0.049700
     61 H51A        15.3390   -15.1370    12.5350 h1         1 AMX       0.012200
     62 H52A        13.5650   -15.0580    12.5050 h1         1 AMX       0.012200
     63 H121        15.8850   -11.6040     6.8780 h1         1 AMX       0.019700
     64 H122        14.6830   -10.7470     5.8960 h1         1 AMX       0.019700
     65 H131        17.1350    -8.1040     6.4080 hc         1 AMX       0.023867
     66 H132        17.4230    -9.7930     5.9780 hc         1 AMX       0.023867
     67 H133        16.0690    -8.9080     5.2620 hc         1 AMX       0.023867
     68 H141        15.0290    -7.4630     7.6640 hc         1 AMX       0.023867
     69 H142        13.9940    -8.4140     6.6000 hc         1 AMX       0.023867
     70 H143        13.9700    -8.7040     8.3440 hc         1 AMX       0.023867
     71 H10         15.8690   -10.2860     9.3090 h1         1 AMX       0.134700
     72 HO1         18.0520   -10.7920     9.1810 ho         1 AMX       0.494000
     73 HN8         18.5350    -8.2620     8.3320 hn         1 AMX       0.321500
     74 H71         18.4010    -6.5810    10.6340 h1         1 AMX       0.049700
     75 H72         19.4010    -6.3520     9.2010 h1         1 AMX       0.049700
     76 H61         16.4870    -5.4890     9.5280 hc         1 AMX       0.067200
     77 H62         17.8930    -4.4330     9.5970 hc         1 AMX       0.067200
     78 HN4         15.4590    -4.8350     7.7500 hn         1 AMX       0.331500
     79 H31         15.1720    -3.7930     5.6960 h1         1 AMX       0.033200
     80 H32         16.8870    -3.9860     5.3350 h1         1 AMX       0.033200
     81 H21         16.5750    -6.3800     4.8770 hc         1 AMX       0.087200
     82 H22         14.8960    -6.3000     5.3760 hc         1 AMX       0.087200
     83 H11         16.0490    -4.7710     2.9860 hc         1 AMX       0.049200
     84 H12         15.2170    -6.3140     2.8830 hc         1 AMX       0.049200
     85 HN21        14.5780    -3.4710     1.8820 hn         1 AMX       0.300000
     86 HN22        12.9100    -3.3100     2.3190 hn         1 AMX       0.300000
@<TRIPOS>BOND
     1     1     2 ar  
     2     1     6 ar  
     3     2     3 ar  
     4     2    52 1   
     5     3     4 ar  
     6     4     5 ar  
     7     4    10 1   
     8     5     6 ar  
     9     5     8 1   
    10     6     7 1   
    11     7    53 1   
    12     7    54 1   
    13     8     9 2   
    14     9    10 1   
    15     9    55 1   
    16    10    11 1   
    17    11    12 1   
    18    11    21 1   
    19    11    56 1   
    20    12    13 1   
    21    12    14 1   
    22    12    57 1   
    23    13    58 1   
    24    14    15 1   
    25    14    20 1   
    26    14    59 1   
    27    15    16 1   
    28    16    17 1   
    29    16    18 1   
    30    16    19 1   
    31    20    21 1   
    32    20    22 1   
    33    20    60 1   
    34    22    23 1   
    35    22    61 1   
    36    22    62 1   
    37    23    24 1   
    38    24    25 1   
    39    24    26 1   
    40    24    27 1   
    41    27    28 1   
    42    28    29 1   
    43    28    30 1   
    44    28    31 1   
    45    31    33 1   
    46    32    33 1   
    47    32    34 1   
    48    32    35 1   
    49    32    36 1   
    50    33    63 1   
    51    33    64 1   
    52    34    65 1   
    53    34    66 1   
    54    34    67 1   
    55    35    68 1   
    56    35    69 1   
    57    35    70 1   
    58    36    37 1   
    59    36    38 1   
    60    36    71 1   
    61    37    72 1   
    62    38    39 2   
    63    38    40 1   
    64    40    41 1   
    65    40    73 1   
    66    41    42 1   
    67    41    74 1   
    68    41    75 1   
    69    42    43 1   
    70    42    76 1   
    71    42    77 1   
    72    43    44 2   
    73    43    45 1   
    74    45    46 1   
    75    45    78 1   
    76    46    47 1   
    77    46    79 1   
    78    46    80 1   
    79    47    48 1   
    80    47    81 1   
    81    47    82 1   
    82    48    49 1   
    83    48    83 1   
    84    48    84 1   
    85    49    50 2   
    86    49    51 1   
    87    51    85 1   
    88    51    86 1   
@<TRIPOS>SUBSTRUCTURE
     1 AMX         1 TEMP              0 ****  ****    0 ROOT
