@<TRIPOS>MOLECULE
AMX
   86    88     1     0     0
SMALL
No Charge or Current Charge


@<TRIPOS>ATOM
      1 N1A         19.4870    -8.0040    12.5200 nb         1 AMX      -0.343000
      2 C2A         18.3420    -8.0070    13.2440 ca         1 AMX       0.109900
      3 N3A         17.4070    -8.9870    13.2790 nb         1 AMX      -0.141000
      4 C4A         17.6480   -10.0610    12.4970 ca         1 AMX       0.123500
      5 C5A         18.7760   -10.1540    11.7180 ca         1 AMX      -0.078600
      6 C6A         19.7010    -9.0850    11.7570 ca         1 AMX       0.389900
      7 N6A         20.8590    -9.0860    11.0440 nv         1 AMX      -1.087900
      8 N7A         18.8250   -11.3400    10.9920 nc         1 AMX      -0.671100
      9 C8A         17.6910   -11.9630    11.3920 cd         1 AMX       0.502700
     10 N9A         16.9270   -11.2110    12.3030 na         1 AMX      -0.240300
     11 C1B         15.6810   -11.6250    12.9310 c5         1 AMX       0.273300
     12 C2B         14.3570   -11.1890    12.2280 c5         1 AMX       0.156300
     13 O2B         14.0280    -9.7850    12.3470 oh         1 AMX      -0.822000
     14 C3B         13.3460   -12.1980    12.9020 c5         1 AMX       0.195300
     15 O3B         12.8870   -11.6800    14.1870 os         1 AMX      -0.612400
     16 P3B         11.5190   -10.8410    14.1720 p5         1 AMX       1.298900
     17 O7A         11.7100    -9.6970    13.2420 o          1 AMX      -0.909167
     18 O8A         11.2440   -10.3380    15.5430 o          1 AMX      -0.909167
     19 O9A         10.4040   -11.7090    13.7150 o          1 AMX      -0.909167
     20 C4B         14.2590   -13.4340    13.2310 c5         1 AMX       0.145300
     21 O4B         15.6100   -13.0590    12.8780 os         1 AMX      -0.502000
     22 C5B         13.8450   -14.7890    12.5880 c3         1 AMX       0.222600
     23 O5B         13.6160   -14.6910    11.1700 os         1 AMX      -0.604400
     24 P1A         14.7790   -14.8570    10.0610 p5         1 AMX       1.503800
     25 O1A         14.3510   -15.7910     8.9780 o          1 AMX      -0.886000
     26 O2A         16.0420   -15.3750    10.6680 o          1 AMX      -0.886000
     27 O3A         15.0040   -13.3640     9.6000 os         1 AMX      -0.728800
     28 P2A         13.8850   -12.8250     8.6250 p5         1 AMX       1.480800
     29 O4A         13.8960   -13.4380     7.2630 o          1 AMX      -0.850500
     30 O5A         12.5220   -12.7910     9.2310 o          1 AMX      -0.850500
     31 O6A         14.4410   -11.3150     8.5320 os         1 AMX      -0.595400
     32 CBP         15.8530    -9.5120     7.6390 c3         1 AMX      -0.048000
     33 CCP         15.3350   -10.9760     7.4650 c3         1 AMX       0.244600
     34 CDP         16.5900    -9.1000     6.3300 c3         1 AMX      -0.075600
     35 CEP         14.6430    -8.5480     7.8290 c3         1 AMX      -0.075600
     36 CAP         16.8200    -9.4480     8.8740 c3         1 AMX       0.111300
     37 OAP         18.0270   -10.2220     8.6020 oh         1 AMX      -0.712000
     38 C9P         17.1560    -7.9960     9.3500 c          1 AMX       0.550100
     39 O9P         16.5140    -7.4110    10.2110 o          1 AMX      -0.575100
     40 N8P         18.2880    -7.4460     8.7840 ns         1 AMX      -0.525900
     41 C7P         18.9120    -6.1790     9.1720 c3         1 AMX       0.125000
     42 C6P         18.0500    -4.9260     8.9130 c3         1 AMX      -0.173400
     43 C5P         17.6250    -4.7840     7.4520 c          1 AMX       0.609100
     44 O5P         18.4230    -4.5390     6.5580 o          1 AMX      -0.656100
     45 N4P         16.2700    -4.8680     7.2270 ns         1 AMX      -0.504900
     46 C3P         15.6170    -4.6120     5.9420 c3         1 AMX       0.112000
     47 C2P         15.6970    -5.8160     4.9810 c3         1 AMX      -0.099400
     48 C1          15.1010    -5.5400     3.5770 c3         1 AMX      -0.146400
     49 C2          13.6040    -5.2090     3.6310 c          1 AMX       0.585100
     50 O2          12.7380    -6.0510     3.7860 o          1 AMX      -0.582100
     51 N2          13.2750    -3.9070     3.4770 nt         1 AMX      -0.628000
     52 H2A         18.1560    -7.1350    13.8680 h5         1 AMX       0.011100
     53 H61A        20.9890    -9.8150    10.3480 hn         1 AMX       0.473000
     54 H62A        21.3720    -8.2180    10.9310 hn         1 AMX       0.473000
     55 H8A         17.3560   -12.9410    11.0590 h5         1 AMX       0.150800
     56 H1B         15.7040   -11.2810    13.9730 h2         1 AMX       0.087700
     57 H2B         14.4380   -11.4390    11.1640 h1         1 AMX       0.067700
     58 HO2A        13.0680    -9.7490    12.7180 ho         1 AMX       0.609000
     59 H3B         12.5020   -12.4550    12.2450 h1         1 AMX       0.104700
     60 H4B         14.2570   -13.6040    14.3160 h1         1 AMX       0.049700
     61 H51A        14.6080   -15.5440    12.8170 h1         1 AMX       0.012200
     62 H52A        12.9190   -15.1200    13.0770 h1         1 AMX       0.012200
     63 H121        16.1820   -11.6750     7.4260 h1         1 AMX       0.019700
     64 H122        14.8060   -11.0460     6.5050 h1         1 AMX       0.019700
     65 H131        17.0210    -8.0960     6.4170 hc         1 AMX       0.023867
     66 H132        17.4010    -9.7970     6.0870 hc         1 AMX       0.023867
     67 H133        15.8980    -9.0950     5.4790 hc         1 AMX       0.023867
     68 H141        14.9600    -7.4990     7.8050 hc         1 AMX       0.023867
     69 H142        13.9050    -8.6870     7.0290 hc         1 AMX       0.023867
     70 H143        14.1390    -8.7220     8.7870 hc         1 AMX       0.023867
     71 H10         16.2770    -9.8850     9.7250 h1         1 AMX       0.134700
     72 HO1         18.3920   -10.5300     9.4790 ho         1 AMX       0.494000
     73 HN8         18.7760    -8.0440     8.1260 hn         1 AMX       0.321500
     74 H71         19.1600    -6.2270    10.2410 h1         1 AMX       0.049700
     75 H72         19.8560    -6.0830     8.6200 h1         1 AMX       0.049700
     76 H61         17.1690    -4.9540     9.5620 hc         1 AMX       0.067200
     77 H62         18.6520    -4.0500     9.1790 hc         1 AMX       0.067200
     78 HN4         15.6880    -5.0590     8.0340 hn         1 AMX       0.331500
     79 H31         14.5650    -4.3660     6.1350 h1         1 AMX       0.033200
     80 H32         16.0880    -3.7370     5.4760 h1         1 AMX       0.033200
     81 H21         16.7470    -6.1120     4.8640 hc         1 AMX       0.087200
     82 H22         15.1730    -6.6660     5.4310 hc         1 AMX       0.087200
     83 H11         15.6540    -4.7040     3.1320 hc         1 AMX       0.049200
     84 H12         15.2390    -6.4410     2.9660 hc         1 AMX       0.049200
     85 HN21        13.9970    -3.2160     3.3380 hn         1 AMX       0.300000
     86 HN22        12.3020    -3.6380     3.4970 hn         1 AMX       0.300000
@<TRIPOS>BOND
     1     1     2 ar  
     2     1     6 ar  
     3     2     3 ar  
     4     2    52 1   
     5     3     4 ar  
     6     4     5 ar  
     7     4    10 1   
     8     5     6 ar  
     9     5     8 1   
    10     6     7 1   
    11     7    53 1   
    12     7    54 1   
    13     8     9 2   
    14     9    10 1   
    15     9    55 1   
    16    10    11 1   
    17    11    12 1   
    18    11    21 1   
    19    11    56 1   
    20    12    13 1   
    21    12    14 1   
    22    12    57 1   
    23    13    58 1   
    24    14    15 1   
    25    14    20 1   
    26    14    59 1   
    27    15    16 1   
    28    16    17 1   
    29    16    18 1   
    30    16    19 1   
    31    20    21 1   
    32    20    22 1   
    33    20    60 1   
    34    22    23 1   
    35    22    61 1   
    36    22    62 1   
    37    23    24 1   
    38    24    25 1   
    39    24    26 1   
    40    24    27 1   
    41    27    28 1   
    42    28    29 1   
    43    28    30 1   
    44    28    31 1   
    45    31    33 1   
    46    32    33 1   
    47    32    34 1   
    48    32    35 1   
    49    32    36 1   
    50    33    63 1   
    51    33    64 1   
    52    34    65 1   
    53    34    66 1   
    54    34    67 1   
    55    35    68 1   
    56    35    69 1   
    57    35    70 1   
    58    36    37 1   
    59    36    38 1   
    60    36    71 1   
    61    37    72 1   
    62    38    39 2   
    63    38    40 1   
    64    40    41 1   
    65    40    73 1   
    66    41    42 1   
    67    41    74 1   
    68    41    75 1   
    69    42    43 1   
    70    42    76 1   
    71    42    77 1   
    72    43    44 2   
    73    43    45 1   
    74    45    46 1   
    75    45    78 1   
    76    46    47 1   
    77    46    79 1   
    78    46    80 1   
    79    47    48 1   
    80    47    81 1   
    81    47    82 1   
    82    48    49 1   
    83    48    83 1   
    84    48    84 1   
    85    49    50 2   
    86    49    51 1   
    87    51    85 1   
    88    51    86 1   
@<TRIPOS>SUBSTRUCTURE
     1 AMX         1 TEMP              0 ****  ****    0 ROOT
