@<TRIPOS>MOLECULE
AMY
   76    77     1     0     0
SMALL
abcg2


@<TRIPOS>ATOM
      1 C1          27.7470   109.9290    69.8210 ca         1 AMY       0.134100
      2 C2          26.7660   109.2910    69.0410 ca         1 AMY      -0.053000
      3 C3          25.5980   108.8360    69.6400 ca         1 AMY      -0.098000
      4 C5          26.3550   109.6390    71.7730 ca         1 AMY      -0.049000
      5 O5          32.3000   113.6540    72.2990 os         1 AMY      -0.468100
      6 C6          27.5400   110.1060    71.1940 ca         1 AMY      -0.212600
      7 C7          28.5450   110.7390    72.1000 c          1 AMY       0.610700
      8 C9          30.1330   112.5950    72.3860 c3         1 AMY      -0.040300
      9 O9          31.9080   116.4390    77.5520 o          1 AMY      -0.480000
     10 C11         30.3660   114.3690    74.8080 c3         1 AMY       0.186300
     11 C12         31.6550   115.1020    75.1770 c3         1 AMY       0.167300
     12 C13         32.8050   115.0130    74.1490 c3         1 AMY      -0.133700
     13 C14         32.7860   113.6190    73.5560 c          1 AMY       0.656100
     14 C4          25.3870   109.0230    71.0030 ca         1 AMY      -0.121000
     15 N1          27.0370   109.1220    67.6710 ns         1 AMY      -0.154000
     16 N2          29.1940   111.8300    71.5930 ns         1 AMY      -0.510900
     17 O1          28.8710   110.3020    69.1510 oh         1 AMY      -0.547100
     18 O2          26.4160   108.8830    65.4990 o          1 AMY      -0.584100
     19 O3          28.7750   110.2940    73.2170 o          1 AMY      -0.573100
     20 C10         31.5330   112.5630    71.7210 c3         1 AMY       0.187300
     21 O4          29.8980   114.8240    73.5050 os         1 AMY      -0.443100
     22 C15         34.1500   115.3580    74.7890 c3         1 AMY      -0.067400
     23 C16         35.2700   115.5050    73.7600 c3         1 AMY      -0.074400
     24 C17         36.6320   115.8340    74.3730 c3         1 AMY      -0.074400
     25 C18         36.7040   117.1990    75.0580 c3         1 AMY      -0.077400
     26 C19         38.1020   117.5200    75.5830 c3         1 AMY      -0.089100
     27 C20         29.6510   114.0530    72.4460 c          1 AMY       0.665100
     28 O7          29.0840   114.5400    71.4950 o          1 AMY      -0.503000
     29 O8          31.3810   116.5020    75.3590 os         1 AMY      -0.444100
     30 C21         31.5630   117.0630    76.5750 c          1 AMY       0.593100
     31 C22         31.2700   118.5350    76.5280 c3         1 AMY      -0.132400
     32 C23         29.7700   118.8440    76.3400 c3         1 AMY      -0.057700
     33 C24         29.5810   120.3450    76.1240 c3         1 AMY      -0.090600
     34 C25         28.9440   118.3470    77.5260 c3         1 AMY      -0.090600
     35 C26         32.1960   111.2000    71.7430 c3         1 AMY      -0.109100
     36 C27         29.2410   114.5910    75.7970 c3         1 AMY      -0.107100
     37 H3          24.8600   108.3120    69.0500 ha         1 AMY       0.126000
     38 H5          26.2150   109.7710    72.8380 ha         1 AMY       0.135000
     39 H8          25.0850   109.1360    67.0150 h5         1 AMY       0.017200
     40 H9          30.1770   112.1280    73.3650 h1         1 AMY       0.105700
     41 H11         30.6060   113.3100    74.7710 h1         1 AMY       0.060700
     42 H12         31.9840   114.6790    76.1250 h1         1 AMY       0.092700
     43 H13         32.5820   115.7190    73.3490 hc         1 AMY       0.103700
     44 H4          24.4720   108.6660    71.4570 ha         1 AMY       0.128000
     45 HN1         28.0100   109.1450    67.3910 hn         1 AMY       0.170000
     46 HN2         28.7620   112.3380    70.8320 hn         1 AMY       0.337500
     47 HO1         29.5370   110.6600    69.7570 ho         1 AMY       0.483000
     48 H10         31.4110   112.8910    70.6890 h1         1 AMY       0.086700
     49 H151        34.0320   116.2880    75.3450 hc         1 AMY       0.057700
     50 H152        34.4080   114.5820    75.5160 hc         1 AMY       0.057700
     51 H161        35.3540   114.5770    73.1850 hc         1 AMY       0.042700
     52 H162        34.9950   116.2880    73.0440 hc         1 AMY       0.042700
     53 H171        36.9020   115.0530    75.0940 hc         1 AMY       0.041700
     54 H172        37.3900   115.7980    73.5840 hc         1 AMY       0.041700
     55 H181        36.3920   117.9710    74.3470 hc         1 AMY       0.036200
     56 H182        35.9920   117.2390    75.8870 hc         1 AMY       0.036200
     57 H191        38.1310   118.4980    76.0680 hc         1 AMY       0.032700
     58 H192        38.4260   116.7740    76.3130 hc         1 AMY       0.032700
     59 H193        38.8330   117.5280    74.7700 hc         1 AMY       0.032700
     60 H221        31.6270   118.9790    77.4580 hc         1 AMY       0.075700
     61 H222        31.8330   118.9650    75.6970 hc         1 AMY       0.075700
     62 H23         29.4360   118.3220    75.4390 hc         1 AMY       0.065700
     63 H241        28.5260   120.5820    75.9700 hc         1 AMY       0.038033
     64 H242        29.9280   120.9060    76.9960 hc         1 AMY       0.038033
     65 H243        30.1390   120.6930    75.2530 hc         1 AMY       0.038033
     66 H251        27.8840   118.5580    77.3690 hc         1 AMY       0.038033
     67 H252        29.0520   117.2720    77.6760 hc         1 AMY       0.038033
     68 H253        29.2570   118.8480    78.4460 hc         1 AMY       0.038033
     69 H261        31.6490   110.5340    71.0750 hc         1 AMY       0.059700
     70 H262        33.2170   111.2850    71.3690 hc         1 AMY       0.059700
     71 H263        32.2170   110.7680    72.7390 hc         1 AMY       0.059700
     72 H271        28.3870   113.9670    75.5310 hc         1 AMY       0.059367
     73 H272        29.5720   114.3210    76.8000 hc         1 AMY       0.059367
     74 H273        28.9290   115.6340    75.7970 hc         1 AMY       0.059367
     75 O6          33.0930   112.6170    74.1530 o          1 AMY      -0.520000
     76 C8          26.1250   109.0400    66.6770 c          1 AMY       0.602900
@<TRIPOS>BOND
     1     1     2 ar  
     2     1     6 ar  
     3     1    17 1   
     4     2     3 ar  
     5     2    15 1   
     6     3    14 ar  
     7     3    37 1   
     8     4     6 ar  
     9     4    14 ar  
    10     4    38 1   
    11     5    13 1   
    12     5    20 1   
    13     6     7 1   
    14     7    16 1   
    15     7    19 2   
    16     8    16 1   
    17     8    20 1   
    18     8    27 1   
    19     8    40 1   
    20     9    30 2   
    21    10    11 1   
    22    10    21 1   
    23    10    36 1   
    24    10    41 1   
    25    11    12 1   
    26    11    29 1   
    27    11    42 1   
    28    12    13 1   
    29    12    22 1   
    30    12    43 1   
    31    13    75 2   
    32    14    44 1   
    33    15    45 1   
    34    15    76 1   
    35    16    46 1   
    36    17    47 1   
    37    18    76 2   
    38    20    35 1   
    39    20    48 1   
    40    21    27 1   
    41    22    23 1   
    42    22    49 1   
    43    22    50 1   
    44    23    24 1   
    45    23    51 1   
    46    23    52 1   
    47    24    25 1   
    48    24    53 1   
    49    24    54 1   
    50    25    26 1   
    51    25    55 1   
    52    25    56 1   
    53    26    57 1   
    54    26    58 1   
    55    26    59 1   
    56    27    28 2   
    57    29    30 1   
    58    30    31 1   
    59    31    32 1   
    60    31    60 1   
    61    31    61 1   
    62    32    33 1   
    63    32    34 1   
    64    32    62 1   
    65    33    63 1   
    66    33    64 1   
    67    33    65 1   
    68    34    66 1   
    69    34    67 1   
    70    34    68 1   
    71    35    69 1   
    72    35    70 1   
    73    35    71 1   
    74    36    72 1   
    75    36    73 1   
    76    36    74 1   
    77    39    76 1   
@<TRIPOS>SUBSTRUCTURE
     1 AMY         1 TEMP              0 ****  ****    0 ROOT
