@<TRIPOS>MOLECULE
AMY
   76    77     1     0     0
SMALL
No Charge or Current Charge


@<TRIPOS>ATOM
      1 C1          27.4400   110.2110    69.9120 ca         1 AMY       0.134100
      2 C2          26.5250   109.4110    69.1780 ca         1 AMY      -0.053000
      3 C3          26.2460   108.0980    69.6070 ca         1 AMY      -0.098000
      4 C5          27.7590   108.3780    71.4860 ca         1 AMY      -0.049000
      5 O5          32.4160   113.7350    72.3500 os         1 AMY      -0.468100
      6 C6          28.0600   109.7030    71.0910 ca         1 AMY      -0.212600
      7 C7          29.0370   110.4790    71.9620 c          1 AMY       0.610700
      8 C9          30.1890   112.7230    72.3740 c3         1 AMY      -0.040300
      9 O9          31.0080   116.6190    77.6230 o          1 AMY      -0.480000
     10 C11         30.2800   114.6490    74.7570 c3         1 AMY       0.186300
     11 C12         31.6410   115.2770    75.2520 c3         1 AMY       0.167300
     12 C13         32.8540   115.0320    74.3070 c3         1 AMY      -0.133700
     13 C14         32.7340   113.6410    73.6830 c          1 AMY       0.656100
     14 C4          26.8670   107.5860    70.7520 ca         1 AMY      -0.121000
     15 N1          25.8610   109.9450    68.0350 ns         1 AMY      -0.154000
     16 N2          29.2520   111.8050    71.6670 ns         1 AMY      -0.510900
     17 O1          27.7340   111.4640    69.4440 oh         1 AMY      -0.547100
     18 O2          24.6190   109.9090    66.1150 o          1 AMY      -0.584100
     19 O3          29.6130   109.9550    72.9050 o          1 AMY      -0.573100
     20 C10         31.5980   112.7400    71.7000 c3         1 AMY       0.187300
     21 O4          30.0380   115.0470    73.3840 os         1 AMY      -0.443100
     22 C15         34.2250   115.2740    74.9990 c3         1 AMY      -0.067400
     23 C16         35.4370   115.1480    74.0420 c3         1 AMY      -0.074400
     24 C17         36.8120   115.3460    74.7230 c3         1 AMY      -0.074400
     25 C18         37.0610   116.7730    75.2660 c3         1 AMY      -0.077400
     26 C19         38.4750   116.9550    75.8500 c3         1 AMY      -0.089100
     27 C20         29.5820   114.1730    72.4110 c          1 AMY       0.665100
     28 O7          28.7790   114.5520    71.5690 o          1 AMY      -0.503000
     29 O8          31.5150   116.7140    75.3820 os         1 AMY      -0.444100
     30 C21         31.1790   117.2590    76.5950 c          1 AMY       0.593100
     31 C22         31.0390   118.7810    76.5070 c3         1 AMY      -0.132400
     32 C23         29.5960   119.2290    76.1440 c3         1 AMY      -0.057700
     33 C24         29.5460   120.7400    75.8240 c3         1 AMY      -0.090600
     34 C25         28.5650   118.8640    77.2390 c3         1 AMY      -0.090600
     35 C26         32.3380   111.3820    71.6330 c3         1 AMY      -0.109100
     36 C27         29.0260   115.0450    75.5620 c3         1 AMY      -0.107100
     37 H3          25.5380   107.4690    69.0750 ha         1 AMY       0.126000
     38 H5          28.2150   107.9490    72.3770 ha         1 AMY       0.135000
     39 H8          25.2670   108.1970    67.0570 h5         1 AMY       0.017200
     40 H9          30.2920   112.3390    73.3900 h1         1 AMY       0.105700
     41 H11         30.3790   113.5680    74.8780 h1         1 AMY       0.060700
     42 H12         31.8830   114.8090    76.2170 h1         1 AMY       0.092700
     43 H13         32.7680   115.7530    73.4850 hc         1 AMY       0.103700
     44 H4          26.6460   106.5730    71.0810 ha         1 AMY       0.128000
     45 HN1         25.7930   110.9530    68.0030 hn         1 AMY       0.170000
     46 HN2         28.7160   112.1620    70.8790 hn         1 AMY       0.337500
     47 HO1         27.5920   111.4830    68.4740 ho         1 AMY       0.483000
     48 H10         31.4480   113.0600    70.6590 h1         1 AMY       0.086700
     49 H151        34.2190   116.2780    75.4410 hc         1 AMY       0.057700
     50 H152        34.3450   114.5650    75.8280 hc         1 AMY       0.057700
     51 H161        35.4290   114.1530    73.5800 hc         1 AMY       0.042700
     52 H162        35.3320   115.8730    73.2240 hc         1 AMY       0.042700
     53 H171        36.9180   114.6220    75.5400 hc         1 AMY       0.041700
     54 H172        37.5940   115.1080    73.9920 hc         1 AMY       0.041700
     55 H181        36.9120   117.5010    74.4590 hc         1 AMY       0.036200
     56 H182        36.3300   117.0070    76.0490 hc         1 AMY       0.036200
     57 H191        38.6060   117.9780    76.2240 hc         1 AMY       0.032700
     58 H192        38.6440   116.2610    76.6820 hc         1 AMY       0.032700
     59 H193        39.2380   116.7700    75.0840 hc         1 AMY       0.032700
     60 H221        31.3350   119.2310    77.4610 hc         1 AMY       0.075700
     61 H222        31.6930   119.1320    75.6990 hc         1 AMY       0.075700
     62 H23         29.3030   118.6990    75.2280 hc         1 AMY       0.065700
     63 H241        28.5350   121.0400    75.5220 hc         1 AMY       0.038033
     64 H242        29.8330   121.3350    76.6990 hc         1 AMY       0.038033
     65 H243        30.2290   120.9870    75.0020 hc         1 AMY       0.038033
     66 H251        27.5610   119.1980    76.9510 hc         1 AMY       0.038033
     67 H252        28.5190   117.7800    77.3980 hc         1 AMY       0.038033
     68 H253        28.8230   119.3400    78.1930 hc         1 AMY       0.038033
     69 H261        31.8760   110.7410    70.8740 hc         1 AMY       0.059700
     70 H262        33.3880   111.5280    71.3540 hc         1 AMY       0.059700
     71 H263        32.2970   110.8440    72.5860 hc         1 AMY       0.059700
     72 H271        28.1530   114.4840    75.2080 hc         1 AMY       0.059367
     73 H272        29.1610   114.8190    76.6260 hc         1 AMY       0.059367
     74 H273        28.8090   116.1140    75.4540 hc         1 AMY       0.059367
     75 O6          32.8120   112.6040    74.3230 o          1 AMY      -0.520000
     76 C8          25.2040   109.2980    67.0050 c          1 AMY       0.602900
@<TRIPOS>BOND
     1     1     2 ar  
     2     1     6 ar  
     3     1    17 1   
     4     2     3 ar  
     5     2    15 1   
     6     3    14 ar  
     7     3    37 1   
     8     4     6 ar  
     9     4    14 ar  
    10     4    38 1   
    11     5    13 1   
    12     5    20 1   
    13     6     7 1   
    14     7    16 1   
    15     7    19 2   
    16     8    16 1   
    17     8    20 1   
    18     8    27 1   
    19     8    40 1   
    20     9    30 2   
    21    10    11 1   
    22    10    21 1   
    23    10    36 1   
    24    10    41 1   
    25    11    12 1   
    26    11    29 1   
    27    11    42 1   
    28    12    13 1   
    29    12    22 1   
    30    12    43 1   
    31    13    75 2   
    32    14    44 1   
    33    15    45 1   
    34    15    76 1   
    35    16    46 1   
    36    17    47 1   
    37    18    76 2   
    38    20    35 1   
    39    20    48 1   
    40    21    27 1   
    41    22    23 1   
    42    22    49 1   
    43    22    50 1   
    44    23    24 1   
    45    23    51 1   
    46    23    52 1   
    47    24    25 1   
    48    24    53 1   
    49    24    54 1   
    50    25    26 1   
    51    25    55 1   
    52    25    56 1   
    53    26    57 1   
    54    26    58 1   
    55    26    59 1   
    56    27    28 2   
    57    29    30 1   
    58    30    31 1   
    59    31    32 1   
    60    31    60 1   
    61    31    61 1   
    62    32    33 1   
    63    32    34 1   
    64    32    62 1   
    65    33    63 1   
    66    33    64 1   
    67    33    65 1   
    68    34    66 1   
    69    34    67 1   
    70    34    68 1   
    71    35    69 1   
    72    35    70 1   
    73    35    71 1   
    74    36    72 1   
    75    36    73 1   
    76    36    74 1   
    77    39    76 1   
@<TRIPOS>SUBSTRUCTURE
     1 AMY         1 TEMP              0 ****  ****    0 ROOT
