@<TRIPOS>MOLECULE
AN0
   23    22     1     0     0
SMALL
bcc


@<TRIPOS>ATOM
      1 CA           0.2660    -0.2970    -0.2230 c3         1 AN0      -0.042300
      2 C           -0.2020    -1.7290     0.1530 c          1 AN0       0.926600
      3 O           -1.1650    -1.8420     0.9290 o          1 AN0      -0.830800
      4 OXT          0.4560    -2.6500    -0.3730 o          1 AN0      -0.830800
      5 CB           1.7100    -0.0540     0.2140 c3         1 AN0      -0.073400
      6 CG           2.2890     1.2740    -0.2590 c3         1 AN0      -0.079400
      7 CD           3.7490     1.4430     0.1400 c3         1 AN0      -0.086100
      8 N1          -0.5920     0.7300     0.3170 ns         1 AN0      -0.522900
      9 C1          -1.7700     1.0640    -0.2250 c          1 AN0       0.669100
     10 O1          -2.1540     0.6430    -1.3110 o          1 AN0      -0.635100
     11 C2          -2.6030     2.0370     0.5760 c3         1 AN0      -0.177100
     12 HA           0.2270    -0.2190    -1.3130 h1         1 AN0       0.063700
     13 HB1          2.3170    -0.8720    -0.1770 hc         1 AN0       0.045700
     14 HB2          1.7800    -0.1170     1.3080 hc         1 AN0       0.045700
     15 HG1          1.7050     2.1050     0.1460 hc         1 AN0       0.030700
     16 HG2          2.1940     1.3380    -1.3470 hc         1 AN0       0.030700
     17 HD1          3.8670     1.4180     1.2250 hc         1 AN0       0.019033
     18 HD2          4.3680     0.6470    -0.2770 hc         1 AN0       0.019033
     19 HD3          4.1510     2.3940    -0.2130 hc         1 AN0       0.019033
     20 HN1         -0.4110     1.0280     1.2620 hn         1 AN0       0.289500
     21 H21         -2.1380     2.3460     1.5090 hc         1 AN0       0.040367
     22 H22         -2.8020     2.9260    -0.0220 hc         1 AN0       0.040367
     23 H23         -3.5670     1.5810     0.8070 hc         1 AN0       0.040367
@<TRIPOS>BOND
     1     1     2 1   
     2     1     5 1   
     3     1     8 1   
     4     1    12 1   
     5     2     3 1   
     6     2     4 1   
     7     5     6 1   
     8     5    13 1   
     9     5    14 1   
    10     6     7 1   
    11     6    15 1   
    12     6    16 1   
    13     7    17 1   
    14     7    18 1   
    15     7    19 1   
    16     8     9 1   
    17     8    20 1   
    18     9    10 2   
    19     9    11 1   
    20    11    21 1   
    21    11    22 1   
    22    11    23 1   
@<TRIPOS>SUBSTRUCTURE
     1 AN0         1 TEMP              0 ****  ****    0 ROOT
