@<TRIPOS>MOLECULE
AN0
   23    22     1     0     0
SMALL
No Charge or Current Charge


@<TRIPOS>ATOM
      1 CA           0.2260    -0.5440    -0.1480 c3         1 AN0      -0.042300
      2 C           -0.0850    -2.0050     0.3040 c          1 AN0       0.716000
      3 O           -0.2860    -2.2200     1.4920 o          1 AN0      -0.725500
      4 OXT         -0.1980    -2.8640    -0.5600 o          1 AN0      -0.725500
      5 CB           1.6560    -0.1150     0.2760 c3         1 AN0      -0.073400
      6 CG           2.1080     1.2550    -0.2820 c3         1 AN0      -0.079400
      7 CD           3.5570     1.6120     0.0980 c3         1 AN0      -0.086100
      8 N1          -0.8120     0.3850     0.3640 ns         1 AN0      -0.455900
      9 C1          -1.3790     1.4240    -0.3430 c          1 AN0       0.602100
     10 O1          -1.0910     1.6760    -1.5050 o          1 AN0      -0.635100
     11 C2          -2.4060     2.2370     0.4410 c3         1 AN0      -0.177100
     12 HA           0.1820    -0.5430    -1.2450 h1         1 AN0       0.063700
     13 HB1          2.3630    -0.8820    -0.0650 hc         1 AN0       0.045700
     14 HB2          1.7180    -0.0970     1.3720 hc         1 AN0       0.045700
     15 HG1          1.4440     2.0440     0.0920 hc         1 AN0       0.030700
     16 HG2          2.0160     1.2500    -1.3760 hc         1 AN0       0.030700
     17 HD1          3.6730     1.6570     1.1870 hc         1 AN0       0.019033
     18 HD2          4.2570     0.8640    -0.2950 hc         1 AN0       0.019033
     19 HD3          3.8310     2.5890    -0.3170 hc         1 AN0       0.019033
     20 HN1         -1.1400     0.2520     1.3130 hn         1 AN0       0.289500
     21 H21         -1.9400     2.6090     1.3610 hc         1 AN0       0.040367
     22 H22         -2.8420     3.0520    -0.1480 hc         1 AN0       0.040367
     23 H23         -3.1770     1.5620     0.8290 hc         1 AN0       0.040367
@<TRIPOS>BOND
     1     1     2 1   
     2     1     5 1   
     3     1     8 1   
     4     1    12 1   
     5     2     3 1   
     6     2     4 1   
     7     5     6 1   
     8     5    13 1   
     9     5    14 1   
    10     6     7 1   
    11     6    15 1   
    12     6    16 1   
    13     7    17 1   
    14     7    18 1   
    15     7    19 1   
    16     8     9 1   
    17     8    20 1   
    18     9    10 2   
    19     9    11 1   
    20    11    21 1   
    21    11    22 1   
    22    11    23 1   
@<TRIPOS>SUBSTRUCTURE
     1 AN0         1 TEMP              0 ****  ****    0 ROOT
