@<TRIPOS>MOLECULE
AN1
   35    37     1     0     0
SMALL
abcg2


@<TRIPOS>ATOM
      1 O1           0.2910    -1.3680    -4.7910 o          1 AN1      -0.736500
      2 C1           0.1650    -0.3400    -4.0950 c          1 AN1       0.717000
      3 O2           0.0960     0.8330    -4.5110 o          1 AN1      -0.736500
      4 C2           0.0920    -0.5690    -2.5740 c3         1 AN1      -0.208400
      5 C3          -0.0480     0.6950    -1.7280 c3         1 AN1      -0.035100
      6 C4          -0.0500     0.3910    -0.2530 ca         1 AN1       0.004700
      7 C5           1.1660     0.2360     0.4350 ca         1 AN1      -0.054500
      8 C6           2.4210     0.3790    -0.2330 ca         1 AN1      -0.062500
      9 C7           3.6040     0.2430     0.4230 ca         1 AN1      -0.145500
     10 C8           3.6170    -0.0430     1.8100 ca         1 AN1      -0.104500
     11 C9           2.4470    -0.1960     2.4860 ca         1 AN1      -0.124000
     12 C10          1.1800    -0.0800     1.8350 ca         1 AN1      -0.010000
     13 C11         -0.0230    -0.2590     2.5380 ca         1 AN1      -0.099300
     14 C12         -1.2380    -0.0850     1.8570 ca         1 AN1      -0.010000
     15 C13         -1.2510     0.2170     0.4520 ca         1 AN1      -0.054500
     16 C14         -2.5200     0.3310    -0.1970 ca         1 AN1      -0.062500
     17 C15         -3.6900     0.1990     0.4820 ca         1 AN1      -0.145500
     18 C16         -3.6770    -0.0570     1.8750 ca         1 AN1      -0.104500
     19 C17         -2.4940    -0.1960     2.5310 ca         1 AN1      -0.124000
     20 C18         -0.0020    -0.6170     3.9980 c3         1 AN1      -0.036800
     21 H2           0.9870    -1.1200    -2.2670 hc         1 AN1       0.025200
     22 H3          -0.7430    -1.2480    -2.3660 hc         1 AN1       0.025200
     23 H4          -0.9520     1.2280    -2.0140 hc         1 AN1       0.056200
     24 H5           0.7600     1.3870    -1.9650 hc         1 AN1       0.056200
     25 H6           2.4400     0.5980    -1.2920 ha         1 AN1       0.136500
     26 H7           4.5370     0.3580    -0.1130 ha         1 AN1       0.106000
     27 H8           4.5600    -0.1380     2.3320 ha         1 AN1       0.096500
     28 H9           2.4870    -0.4010     3.5460 ha         1 AN1       0.099000
     29 H10         -2.5590     0.5250    -1.2590 ha         1 AN1       0.136500
     30 H11         -4.6330     0.2950    -0.0400 ha         1 AN1       0.106000
     31 H12         -4.6100    -0.1450     2.4160 ha         1 AN1       0.096500
     32 H13         -2.5160    -0.3830     3.5950 ha         1 AN1       0.099000
     33 H14          0.0620     0.2720     4.6310 hc         1 AN1       0.031700
     34 H15         -0.8900    -1.1650     4.3020 hc         1 AN1       0.031700
     35 H16          0.8440    -1.2530     4.2490 hc         1 AN1       0.031700
@<TRIPOS>BOND
     1     1     2 1   
     2     2     3 1   
     3     2     4 1   
     4     4     5 1   
     5     4    21 1   
     6     4    22 1   
     7     5     6 1   
     8     5    23 1   
     9     5    24 1   
    10     6     7 ar  
    11     6    15 ar  
    12     7     8 ar  
    13     7    12 ar  
    14     8     9 ar  
    15     8    25 1   
    16     9    10 ar  
    17     9    26 1   
    18    10    11 ar  
    19    10    27 1   
    20    11    12 ar  
    21    11    28 1   
    22    12    13 ar  
    23    13    14 ar  
    24    13    20 1   
    25    14    15 ar  
    26    14    19 ar  
    27    15    16 ar  
    28    16    17 ar  
    29    16    29 1   
    30    17    18 ar  
    31    17    30 1   
    32    18    19 ar  
    33    18    31 1   
    34    19    32 1   
    35    20    33 1   
    36    20    34 1   
    37    20    35 1   
@<TRIPOS>SUBSTRUCTURE
     1 AN1         1 TEMP              0 ****  ****    0 ROOT
