@<TRIPOS>MOLECULE
AN1
   35    37     1     0     0
SMALL
No Charge or Current Charge


@<TRIPOS>ATOM
      1 O1           1.0670    -0.0280    -4.6940 o          1 AN1      -0.736500
      2 C1          -0.0140    -0.1850    -4.1480 c          1 AN1       0.717000
      3 O2          -1.0860     0.0300    -4.6920 o          1 AN1      -0.736500
      4 C2          -0.0230    -0.6060    -2.6700 c3         1 AN1      -0.208400
      5 C3           0.0120     0.6470    -1.7600 c3         1 AN1      -0.035100
      6 C4           0.0040     0.2950    -0.2540 ca         1 AN1       0.004700
      7 C5           1.2310     0.1220     0.4510 ca         1 AN1      -0.054500
      8 C6           2.4820     0.1600    -0.2260 ca         1 AN1      -0.062500
      9 C7           3.6920     0.0370     0.4670 ca         1 AN1      -0.145500
     10 C8           3.6870    -0.1240     1.8510 ca         1 AN1      -0.104500
     11 C9           2.4690    -0.1940     2.5380 ca         1 AN1      -0.124000
     12 C10          1.2250    -0.1030     1.8560 ca         1 AN1      -0.010000
     13 C11         -0.0060    -0.2220     2.5600 ca         1 AN1      -0.099300
     14 C12         -1.2310    -0.0360     1.8590 ca         1 AN1      -0.010000
     15 C13         -1.2280     0.1890     0.4540 ca         1 AN1      -0.054500
     16 C14         -2.4770     0.2950    -0.2200 ca         1 AN1      -0.062500
     17 C15         -3.6900     0.2370     0.4760 ca         1 AN1      -0.145500
     18 C16         -3.6900     0.0760     1.8610 ca         1 AN1      -0.104500
     19 C17         -2.4770    -0.0600     2.5440 ca         1 AN1      -0.124000
     20 C18         -0.0140    -0.5970     4.0580 c3         1 AN1      -0.036800
     21 H2           0.8790    -1.1810    -2.4300 hc         1 AN1       0.025200
     22 H3          -0.9550    -1.1320    -2.4270 hc         1 AN1       0.025200
     23 H4          -0.8160     1.3140    -2.0200 hc         1 AN1       0.056200
     24 H5           0.8740     1.2680    -2.0220 hc         1 AN1       0.056200
     25 H6           2.5530     0.2700    -1.3030 ha         1 AN1       0.136500
     26 H7           4.6350     0.0740    -0.0740 ha         1 AN1       0.106000
     27 H8           4.6260    -0.2010     2.3950 ha         1 AN1       0.096500
     28 H9           2.5290    -0.3010     3.6150 ha         1 AN1       0.099000
     29 H10         -2.5440     0.4090    -1.2960 ha         1 AN1       0.136500
     30 H11         -4.6320     0.3260    -0.0620 ha         1 AN1       0.106000
     31 H12         -4.6300     0.0510     2.4070 ha         1 AN1       0.096500
     32 H13         -2.5400    -0.1640     3.6210 ha         1 AN1       0.099000
     33 H14          0.0110     0.2970     4.6930 hc         1 AN1       0.031700
     34 H15         -0.8840    -1.1960     4.3420 hc         1 AN1       0.031700
     35 H16          0.8220    -1.2430     4.3400 hc         1 AN1       0.031700
@<TRIPOS>BOND
     1     1     2 1   
     2     2     3 1   
     3     2     4 1   
     4     4     5 1   
     5     4    21 1   
     6     4    22 1   
     7     5     6 1   
     8     5    23 1   
     9     5    24 1   
    10     6     7 ar  
    11     6    15 ar  
    12     7     8 ar  
    13     7    12 ar  
    14     8     9 ar  
    15     8    25 1   
    16     9    10 ar  
    17     9    26 1   
    18    10    11 ar  
    19    10    27 1   
    20    11    12 ar  
    21    11    28 1   
    22    12    13 ar  
    23    13    14 ar  
    24    13    20 1   
    25    14    15 ar  
    26    14    19 ar  
    27    15    16 ar  
    28    16    17 ar  
    29    16    29 1   
    30    17    18 ar  
    31    17    30 1   
    32    18    19 ar  
    33    18    31 1   
    34    19    32 1   
    35    20    33 1   
    36    20    34 1   
    37    20    35 1   
@<TRIPOS>SUBSTRUCTURE
     1 AN1         1 TEMP              0 ****  ****    0 ROOT
