@<TRIPOS>MOLECULE
AN2
   41    43     1     0     0
SMALL
No Charge or Current Charge


@<TRIPOS>ATOM
      1 N3B         -3.7530    -0.5500    -2.9190 n8         1 AN2      -1.086300
      2 PB          -4.4200    -0.3570    -1.5180 p5         1 AN2       1.400700
      3 O2B         -5.4960     0.5310    -2.0050 o          1 AN2      -0.858500
      4 O1B         -4.7100    -1.7900    -1.3120 o          1 AN2      -0.858500
      5 O3A         -3.1820     0.2850    -0.8150 os         1 AN2      -0.692800
      6 PA          -3.4670     0.3470     0.7340 p5         1 AN2       1.455800
      7 O1A         -4.7990     0.9130     1.0970 o          1 AN2      -0.854500
      8 O2A         -3.1770    -0.9460     1.4200 o          1 AN2      -0.854500
      9 O5          -2.3150     1.4120     1.1000 os         1 AN2      -0.561400
     10 C5          -1.0240     0.9990     1.5900 c3         1 AN2       0.229600
     11 C4          -0.2770     0.0300     0.6140 c5         1 AN2       0.154300
     12 O4           1.0100     0.5860     0.2800 os         1 AN2      -0.401000
     13 C3           0.0990    -1.3600     1.2160 c5         1 AN2       0.083300
     14 O3          -0.9900    -2.3010     1.3050 oh         1 AN2      -0.701000
     15 C2           1.1510    -1.8330     0.1690 c5         1 AN2       0.091300
     16 O2           0.4620    -2.4320    -0.9360 oh         1 AN2      -0.712000
     17 C1           1.8630    -0.4760    -0.2040 c5         1 AN2       0.316300
     18 N9           3.2060    -0.2490     0.3240 na         1 AN2      -0.305300
     19 C8           3.7280    -0.7670     1.5160 cc         1 AN2       0.458700
     20 N7           5.0070    -0.3790     1.6990 nd         1 AN2      -0.576100
     21 C7           5.2720     0.4020     0.5690 ca         1 AN2      -0.085600
     22 C9           4.1890     0.4880    -0.2690 ca         1 AN2       0.096500
     23 N3           4.2210     1.1900    -1.4180 nb         1 AN2      -0.213000
     24 C10          5.3930     1.8110    -1.6940 ca         1 AN2       0.151900
     25 N1           6.5180     1.7940    -0.9370 nb         1 AN2      -0.324000
     26 C6           6.4530     1.0810     0.1990 ca         1 AN2       0.436900
     27 N6           7.5800     1.0680     0.9590 nv         1 AN2      -1.075900
     28 H3B1        -4.0520    -1.5220    -2.8810 hn         1 AN2       0.388000
     29 H3B2        -4.5480    -0.0560    -3.3200 hn         1 AN2       0.388000
     30 H5'1        -1.1350     0.5100     2.5660 h1         1 AN2       0.017200
     31 H5'2        -0.3980     1.8860     1.7530 h1         1 AN2       0.017200
     32 H4          -0.8350    -0.0820    -0.3220 h1         1 AN2       0.089700
     33 H3           0.5680    -1.2270     2.2020 h1         1 AN2       0.057700
     34 HA          -1.8510    -1.7780     1.4180 ho         1 AN2       0.495000
     35 H2           1.8540    -2.5560     0.6060 h1         1 AN2       0.062700
     36 HB          -0.3660    -2.7780    -0.5160 ho         1 AN2       0.517000
     37 H1           1.9560    -0.4060    -1.2960 h2         1 AN2       0.102700
     38 H8           3.1510    -1.3950     2.1870 h5         1 AN2       0.124800
     39 H7           5.4340     2.3840    -2.6180 h5         1 AN2       0.027100
     40 H6N1         8.2700     1.7960     0.7960 hn         1 AN2       0.498500
     41 H6N2         7.4870     0.7300     1.9140 hn         1 AN2       0.498500
@<TRIPOS>BOND
     1     1     2 1   
     2     1    28 1   
     3     1    29 1   
     4     2     3 1   
     5     2     4 1   
     6     2     5 1   
     7     5     6 1   
     8     6     7 1   
     9     6     8 1   
    10     6     9 1   
    11     9    10 1   
    12    10    11 1   
    13    10    30 1   
    14    10    31 1   
    15    11    12 1   
    16    11    13 1   
    17    11    32 1   
    18    12    17 1   
    19    13    14 1   
    20    13    15 1   
    21    13    33 1   
    22    14    34 1   
    23    15    16 1   
    24    15    17 1   
    25    15    35 1   
    26    16    36 1   
    27    17    18 1   
    28    17    37 1   
    29    18    19 1   
    30    18    22 1   
    31    19    20 2   
    32    19    38 1   
    33    20    21 1   
    34    21    22 ar  
    35    21    26 ar  
    36    22    23 ar  
    37    23    24 ar  
    38    24    25 ar  
    39    24    39 1   
    40    25    26 ar  
    41    26    27 1   
    42    27    40 1   
    43    27    41 1   
@<TRIPOS>SUBSTRUCTURE
     1 AN2         1 TEMP              0 ****  ****    0 ROOT
