@<TRIPOS>MOLECULE
AN2
   41    43     1     0     0
SMALL
bcc


@<TRIPOS>ATOM
      1 N3B         -5.5310     1.8850    -1.7340 n8         1 AN2      -0.975900
      2 PB          -4.9370     1.8460    -0.1410 p5         1 AN2       1.400700
      3 O2B         -4.1650     3.1120     0.0830 o          1 AN2      -0.858500
      4 O1B         -5.9700     1.3900     0.8490 o          1 AN2      -0.858500
      5 O3A         -3.8660     0.5880    -0.3510 os         1 AN2      -0.692800
      6 PA          -3.2690    -0.3060     0.8740 p5         1 AN2       1.455800
      7 O1A         -2.9760     0.5270     2.0830 o          1 AN2      -0.854500
      8 O2A         -4.0450    -1.5800     1.0130 o          1 AN2      -0.854500
      9 O5          -1.8510    -0.6340     0.0860 os         1 AN2      -0.538200
     10 C5          -0.8290    -1.2440     0.8340 c3         1 AN2       0.206400
     11 C4           0.1560    -1.8980    -0.1050 c5         1 AN2       0.131100
     12 O4           0.7120    -0.9390    -1.0070 os         1 AN2      -0.354600
     13 C3           1.3510    -2.5140     0.6190 c5         1 AN2       0.060100
     14 O3           1.0690    -3.8400     0.9710 oh         1 AN2      -0.578800
     15 C2           2.4660    -2.3770    -0.4240 c5         1 AN2       0.068100
     16 O2           2.3560    -3.3660    -1.4110 oh         1 AN2      -0.589800
     17 C1           2.0970    -1.0450    -1.0710 c5         1 AN2       0.263800
     18 N9           2.6960     0.0860    -0.3590 na         1 AN2      -0.276000
     19 C8           2.0550     1.1250     0.2580 cc         1 AN2       0.458700
     20 N7           2.8670     2.0270     0.7280 nd         1 AN2      -0.576100
     21 C7           4.1130     1.5710     0.3920 ca         1 AN2      -0.216200
     22 C9           4.0290     0.3690    -0.2930 ca         1 AN2       0.424800
     23 N3           5.0480    -0.3380    -0.7810 nb         1 AN2      -0.739000
     24 C10          6.2080     0.2440    -0.5310 ca         1 AN2       0.677900
     25 N1           6.4410     1.3850     0.1130 nb         1 AN2      -0.850000
     26 C6           5.4080     2.0840     0.5940 ca         1 AN2       0.765200
     27 N6           5.6360     3.2250     1.2470 nv         1 AN2      -0.965500
     28 H3B1        -6.3120     1.2690    -1.9120 hn         1 AN2       0.332800
     29 H3B2        -5.7730     2.8180    -2.0380 hn         1 AN2       0.332800
     30 H5'1        -1.2120    -2.0290     1.4990 h1         1 AN2       0.017200
     31 H5'2        -0.3140    -0.5120     1.4700 h1         1 AN2       0.017200
     32 H4          -0.3600    -2.6680    -0.6910 h1         1 AN2       0.089700
     33 H3           1.6110    -1.9140     1.5010 h1         1 AN2       0.057700
     34 HA           1.6810    -4.1130     1.6620 ho         1 AN2       0.396000
     35 H2           3.4650    -2.3610     0.0270 h1         1 AN2       0.062700
     36 HB           2.0760    -4.1820    -0.9780 ho         1 AN2       0.418000
     37 H1           2.4320    -0.9930    -2.1110 h2         1 AN2       0.102700
     38 H8           0.9800     1.1770     0.3210 h5         1 AN2       0.124800
     39 H7           7.0900    -0.2720    -0.8970 h5         1 AN2       0.027100
     40 H6N1         6.5690     3.5930     1.3100 hn         1 AN2       0.443300
     41 H6N2         4.8760     3.8070     1.5520 hn         1 AN2       0.443300
@<TRIPOS>BOND
     1     1     2 1   
     2     1    28 1   
     3     1    29 1   
     4     2     3 1   
     5     2     4 1   
     6     2     5 1   
     7     5     6 1   
     8     6     7 1   
     9     6     8 1   
    10     6     9 1   
    11     9    10 1   
    12    10    11 1   
    13    10    30 1   
    14    10    31 1   
    15    11    12 1   
    16    11    13 1   
    17    11    32 1   
    18    12    17 1   
    19    13    14 1   
    20    13    15 1   
    21    13    33 1   
    22    14    34 1   
    23    15    16 1   
    24    15    17 1   
    25    15    35 1   
    26    16    36 1   
    27    17    18 1   
    28    17    37 1   
    29    18    19 1   
    30    18    22 1   
    31    19    20 2   
    32    19    38 1   
    33    20    21 1   
    34    21    22 ar  
    35    21    26 ar  
    36    22    23 ar  
    37    23    24 ar  
    38    24    25 ar  
    39    24    39 1   
    40    25    26 ar  
    41    26    27 1   
    42    27    40 1   
    43    27    41 1   
@<TRIPOS>SUBSTRUCTURE
     1 AN2         1 TEMP              0 ****  ****    0 ROOT
