@<TRIPOS>MOLECULE
AN3
   24    26     1     0     0
SMALL
No Charge or Current Charge


@<TRIPOS>ATOM
      1 C1           1.2310     0.6900     0.0210 ca         1 AN3      -0.033000
      2 C2           2.4520     1.3910     0.0180 ca         1 AN3      -0.098750
      3 C3           1.2320    -0.7230     0.0220 ca         1 AN3      -0.033000
      4 C4           3.6690     0.6880     0.0170 ca         1 AN3      -0.107000
      5 C5           2.4540    -1.4230     0.0200 ca         1 AN3      -0.098750
      6 C6           3.6700    -0.7180     0.0180 ca         1 AN3      -0.107000
      7 C7          -3.6470    -0.7220     0.0290 ca         1 AN3      -0.107000
      8 C8          -3.6480     0.6830     0.0280 ca         1 AN3      -0.107000
      9 C9          -2.4300    -1.4250     0.0270 ca         1 AN3      -0.098750
     10 C10         -2.4310     1.3880     0.0250 ca         1 AN3      -0.098750
     11 C11         -1.2090    -0.7240     0.0250 ca         1 AN3      -0.033000
     12 C12         -1.2090     0.6890     0.0240 ca         1 AN3      -0.033000
     13 C13          0.0100     1.3910     0.0220 ca         1 AN3      -0.087000
     14 C14          0.0120    -1.4250     0.0240 ca         1 AN3      -0.087000
     15 H2           2.4600     2.4790     0.0170 ha         1 AN3       0.113000
     16 H4           4.6110     1.2320     0.0150 ha         1 AN3       0.112250
     17 H5           2.4630    -2.5100     0.0210 ha         1 AN3       0.113000
     18 H6           4.6120    -1.2610     0.0170 ha         1 AN3       0.112250
     19 H7          -4.5890    -1.2660     0.0300 ha         1 AN3       0.112250
     20 H8          -4.5900     1.2260     0.0290 ha         1 AN3       0.112250
     21 H9          -2.4380    -2.5130     0.0280 ha         1 AN3       0.113000
     22 H10         -2.4410     2.4760     0.0250 ha         1 AN3       0.113000
     23 H13          0.0100     2.4780     0.0210 ha         1 AN3       0.114000
     24 H14          0.0130    -2.5130     0.0250 ha         1 AN3       0.114000
@<TRIPOS>BOND
     1     1     2 ar  
     2     1     3 ar  
     3     1    13 ar  
     4     2     4 ar  
     5     2    15 1   
     6     3     5 ar  
     7     3    14 ar  
     8     4     6 ar  
     9     4    16 1   
    10     5     6 ar  
    11     5    17 1   
    12     6    18 1   
    13     7     8 ar  
    14     7     9 ar  
    15     7    19 1   
    16     8    10 ar  
    17     8    20 1   
    18     9    11 ar  
    19     9    21 1   
    20    10    12 ar  
    21    10    22 1   
    22    11    12 ar  
    23    11    14 ar  
    24    12    13 ar  
    25    13    23 1   
    26    14    24 1   
@<TRIPOS>SUBSTRUCTURE
     1 AN3         1 TEMP              0 ****  ****    0 ROOT
