@<TRIPOS>MOLECULE
AN3
   24    26     1     0     0
SMALL
bcc


@<TRIPOS>ATOM
      1 C1           1.2250     0.6990     0.0210 ca         1 AN3      -0.033000
      2 C2           2.4740     1.3850     0.0180 ca         1 AN3      -0.116750
      3 C3           1.2260    -0.7320     0.0220 ca         1 AN3      -0.033000
      4 C4           3.6470     0.6960     0.0170 ca         1 AN3      -0.125000
      5 C5           2.4760    -1.4170     0.0200 ca         1 AN3      -0.116750
      6 C6           3.6480    -0.7260     0.0180 ca         1 AN3      -0.125000
      7 C7          -3.6250    -0.7300     0.0290 ca         1 AN3      -0.125000
      8 C8          -3.6260     0.6920     0.0270 ca         1 AN3      -0.125000
      9 C9          -2.4520    -1.4200     0.0280 ca         1 AN3      -0.116750
     10 C10         -2.4540     1.3830     0.0250 ca         1 AN3      -0.116750
     11 C11         -1.2030    -0.7340     0.0250 ca         1 AN3      -0.033000
     12 C12         -1.2040     0.6980     0.0240 ca         1 AN3      -0.033000
     13 C13          0.0100     1.3800     0.0220 ca         1 AN3      -0.105000
     14 C14          0.0120    -1.4150     0.0240 ca         1 AN3      -0.105000
     15 H2           2.4730     2.4690     0.0180 ha         1 AN3       0.131000
     16 H4           4.5900     1.2280     0.0160 ha         1 AN3       0.130250
     17 H5           2.4770    -2.5000     0.0200 ha         1 AN3       0.131000
     18 H6           4.5910    -1.2570     0.0160 ha         1 AN3       0.130250
     19 H7          -4.5680    -1.2620     0.0300 ha         1 AN3       0.130250
     20 H8          -4.5690     1.2220     0.0280 ha         1 AN3       0.130250
     21 H9          -2.4510    -2.5030     0.0290 ha         1 AN3       0.131000
     22 H10         -2.4530     2.4660     0.0240 ha         1 AN3       0.131000
     23 H13          0.0100     2.4650     0.0210 ha         1 AN3       0.132000
     24 H14          0.0130    -2.4990     0.0250 ha         1 AN3       0.132000
@<TRIPOS>BOND
     1     1     2 ar  
     2     1     3 ar  
     3     1    13 ar  
     4     2     4 ar  
     5     2    15 1   
     6     3     5 ar  
     7     3    14 ar  
     8     4     6 ar  
     9     4    16 1   
    10     5     6 ar  
    11     5    17 1   
    12     6    18 1   
    13     7     8 ar  
    14     7     9 ar  
    15     7    19 1   
    16     8    10 ar  
    17     8    20 1   
    18     9    11 ar  
    19     9    21 1   
    20    10    12 ar  
    21    10    22 1   
    22    11    12 ar  
    23    11    14 ar  
    24    12    13 ar  
    25    13    23 1   
    26    14    24 1   
@<TRIPOS>SUBSTRUCTURE
     1 AN3         1 TEMP              0 ****  ****    0 ROOT
