@<TRIPOS>MOLECULE
AN5
   27    27     1     0     0
SMALL
No Charge or Current Charge


@<TRIPOS>ATOM
      1 C11         -2.9080    -1.1130     0.0070 ca         1 AN5      -0.022000
      2 C12         -4.1910    -0.5460     0.0160 ca         1 AN5      -0.176000
      3 C13         -4.3240     0.8500     0.0180 ca         1 AN5       0.357900
      4 N11         -3.2600     1.6840     0.0110 nb         1 AN5      -0.673000
      5 C14         -2.0220     1.1380     0.0020 ca         1 AN5       0.369900
      6 C15         -1.7900    -0.2520    -0.0010 ca         1 AN5      -0.230600
      7 C16         -0.3910    -0.8120    -0.0110 c          1 AN5       0.588700
      8 C17          0.8160     0.1490    -0.0200 c3         1 AN5      -0.173400
      9 C18          2.2160    -0.5170    -0.0310 c3         1 AN5      -0.067400
     10 O11         -0.2170    -2.0260    -0.0130 o          1 AN5      -0.521100
     11 C10          4.7620    -0.1530    -0.0510 c3         1 AN5       0.148800
     12 N12          5.8410     0.8520    -0.0620 n8         1 AN5      -0.995200
     13 C1           3.3700     0.5100    -0.0400 c3         1 AN5      -0.080400
     14 H11         -2.7910    -2.1960     0.0050 ha         1 AN5       0.140000
     15 H12         -5.0770    -1.1750     0.0220 ha         1 AN5       0.129000
     16 H13         -5.3080     1.3150     0.0260 h4         1 AN5       0.022100
     17 H14         -1.2040     1.8560    -0.0040 h4         1 AN5       0.020100
     18 H171         0.6910     0.8340    -0.8670 hc         1 AN5       0.064700
     19 H172         0.7040     0.8330     0.8300 hc         1 AN5       0.064700
     20 H181         2.3170    -1.1630     0.8510 hc         1 AN5       0.052200
     21 H182         2.3030    -1.1620    -0.9140 hc         1 AN5       0.052200
     22 H11C         3.2700     1.1550    -0.9220 hc         1 AN5       0.045200
     23 H12C         3.2830     1.1560     0.8440 hc         1 AN5       0.045200
     24 H101         4.8630    -0.7870    -0.9430 h1         1 AN5       0.028200
     25 H102         4.8790    -0.7860     0.8400 h1         1 AN5       0.028200
     26 H121         5.8010     1.3930     0.8100 hn         1 AN5       0.391000
     27 H122         6.7470     0.3710    -0.0050 hn         1 AN5       0.391000
@<TRIPOS>BOND
     1     1     2 ar  
     2     1     6 ar  
     3     1    14 1   
     4     2     3 ar  
     5     2    15 1   
     6     3     4 ar  
     7     3    16 1   
     8     4     5 ar  
     9     5     6 ar  
    10     5    17 1   
    11     6     7 1   
    12     7     8 1   
    13     7    10 2   
    14     8     9 1   
    15     8    18 1   
    16     8    19 1   
    17     9    13 1   
    18     9    20 1   
    19     9    21 1   
    20    11    12 1   
    21    11    13 1   
    22    11    24 1   
    23    11    25 1   
    24    12    26 1   
    25    12    27 1   
    26    13    22 1   
    27    13    23 1   
@<TRIPOS>SUBSTRUCTURE
     1 AN5         1 TEMP              0 ****  ****    0 ROOT
