@<TRIPOS>MOLECULE
AN5
   27    27     1     0     0
SMALL
abcg2


@<TRIPOS>ATOM
      1 C11         -2.8250    -1.0870     0.0200 ca         1 AN5      -0.022000
      2 C12         -4.1010    -0.5560     0.0230 ca         1 AN5      -0.176000
      3 C13         -4.2410     0.8260     0.0050 ca         1 AN5       0.357900
      4 N11         -3.2110     1.6630    -0.0150 nb         1 AN5      -0.673000
      5 C14         -1.9910     1.1440    -0.0170 ca         1 AN5       0.369900
      6 C15         -1.7300    -0.2250    -0.0010 ca         1 AN5      -0.230600
      7 C16         -0.3470    -0.7850    -0.0060 c          1 AN5       0.588700
      8 C17          0.8160     0.1730    -0.0140 c3         1 AN5      -0.173400
      9 C18          2.1780    -0.5020    -0.0230 c3         1 AN5      -0.067400
     10 O11         -0.1870    -1.9860    -0.0030 o          1 AN5      -0.521100
     11 C10          4.6820    -0.1550    -0.0430 c3         1 AN5       0.148800
     12 N12          5.7480     0.8370    -0.0420 n8         1 AN5      -0.995200
     13 C1           3.3140     0.5120    -0.0270 c3         1 AN5      -0.080400
     14 H11         -2.6780    -2.1590     0.0340 ha         1 AN5       0.140000
     15 H12         -4.9740    -1.1930     0.0390 ha         1 AN5       0.129000
     16 H13         -5.2290     1.2730     0.0060 h4         1 AN5       0.022100
     17 H14         -1.1800     1.8630    -0.0340 h4         1 AN5       0.020100
     18 H171         0.7140     0.8330    -0.8830 hc         1 AN5       0.064700
     19 H172         0.7240     0.8330     0.8560 hc         1 AN5       0.064700
     20 H181         2.2730    -1.1540     0.8500 hc         1 AN5       0.052200
     21 H182         2.2650    -1.1490    -0.9000 hc         1 AN5       0.052200
     22 H11C         3.2270     1.1700    -0.8960 hc         1 AN5       0.045200
     23 H12C         3.2340     1.1540     0.8580 hc         1 AN5       0.045200
     24 H101         4.7730    -0.7560    -0.9520 h1         1 AN5       0.028200
     25 H102         4.7410    -0.8620     0.7980 h1         1 AN5       0.028200
     26 H121         5.7390     1.3300     0.8430 hn         1 AN5       0.391000
     27 H122         6.6440     0.3670    -0.0780 hn         1 AN5       0.391000
@<TRIPOS>BOND
     1     1     2 ar  
     2     1     6 ar  
     3     1    14 1   
     4     2     3 ar  
     5     2    15 1   
     6     3     4 ar  
     7     3    16 1   
     8     4     5 ar  
     9     5     6 ar  
    10     5    17 1   
    11     6     7 1   
    12     7     8 1   
    13     7    10 2   
    14     8     9 1   
    15     8    18 1   
    16     8    19 1   
    17     9    13 1   
    18     9    20 1   
    19     9    21 1   
    20    11    12 1   
    21    11    13 1   
    22    11    24 1   
    23    11    25 1   
    24    12    26 1   
    25    12    27 1   
    26    13    22 1   
    27    13    23 1   
@<TRIPOS>SUBSTRUCTURE
     1 AN5         1 TEMP              0 ****  ****    0 ROOT
