@<TRIPOS>MOLECULE
AN6
   52    54     1     0     0
SMALL
No Charge or Current Charge


@<TRIPOS>ATOM
      1 C           -2.8390    -3.0200    -1.5810 c          1 AN6       0.696000
      2 N           -3.8460    -2.6620     0.8190 n8         1 AN6      -1.002200
      3 O           -2.0810    -3.9130    -1.2210 o          1 AN6      -0.734000
      4 C1          -3.2380     2.0270     3.0600 c3         1 AN6      -0.088100
      5 N1           3.5030    -2.6660    -0.3280 nb         1 AN6      -0.319000
      6 C2           3.7410    -1.5440    -1.0480 ca         1 AN6       0.161900
      7 C3          -2.7830     2.5200     1.6710 c3         1 AN6       0.183800
      8 N3           3.1590    -0.3340    -0.8740 nb         1 AN6      -0.219000
      9 C4           2.2500    -0.2520     0.1190 ca         1 AN6       0.119500
     10 C5           1.9370    -1.3310     0.9070 ca         1 AN6      -0.091600
     11 C6           2.5940    -2.5530     0.6520 ca         1 AN6       0.443900
     12 N6           2.3670    -3.6770     1.3820 nv         1 AN6      -1.071900
     13 N7           0.9910    -1.0240     1.8770 nc         1 AN6      -0.527100
     14 C8           0.7470     0.2790     1.6290 cd         1 AN6       0.442700
     15 N9           1.5010     0.8080     0.5620 na         1 AN6      -0.291300
     16 C7           1.5590     2.2040     0.1310 c5         1 AN6       0.315300
     17 N10         -2.1410     1.4890     0.8090 n3         1 AN6      -0.727600
     18 C9           1.4230     2.4600    -1.4220 c5         1 AN6       0.077300
     19 O2           2.6450     2.8960    -2.0600 oh         1 AN6      -0.699000
     20 C10          0.3400     3.5810    -1.5000 c5         1 AN6       0.105300
     21 O3           0.9810     4.8600    -1.4460 oh         1 AN6      -0.712000
     22 C11         -0.5100     3.2610    -0.2320 c5         1 AN6       0.169300
     23 O4           0.5010     2.9610     0.7610 os         1 AN6      -0.424000
     24 C12         -1.5180     2.0730    -0.4230 c3         1 AN6       0.168800
     25 O5          -3.2700    -2.9350    -2.7230 o          1 AN6      -0.734000
     26 CA          -3.4190    -2.0330    -0.4850 c3         1 AN6       0.009500
     27 CB          -2.4320    -0.8590    -0.2450 c3         1 AN6      -0.063400
     28 CG          -3.0590     0.3460     0.5070 c3         1 AN6       0.173800
     29 HN          -4.5390    -3.3950     0.6240 hn         1 AN6       0.385000
     30 HN'A        -3.0490    -3.1940     1.1900 hn         1 AN6       0.385000
     31 H1          -4.1040     1.3600     2.9870 hc         1 AN6       0.035367
     32 H1A         -2.4240     1.4980     3.5680 hc         1 AN6       0.035367
     33 H1B         -3.5310     2.8810     3.6820 hc         1 AN6       0.035367
     34 H3          -3.6460     2.9590     1.1520 h1         1 AN6       0.013700
     35 H3A         -2.0750     3.3360     1.8600 h1         1 AN6       0.013700
     36 HN6          1.8590    -3.5600     2.2550 hn         1 AN6       0.504000
     37 HN6A         3.0620    -4.4180     1.3530 hn         1 AN6       0.504000
     38 H6           2.5260     2.5800     0.4900 h2         1 AN6       0.104700
     39 H2           1.0460     1.5520    -1.9150 h1         1 AN6       0.067700
     40 HO2          3.2210     2.1000    -2.1690 ho         1 AN6       0.508000
     41 H7          -0.2600     3.4960    -2.4170 h1         1 AN6       0.046700
     42 HO3          1.9060     4.6370    -1.7290 ho         1 AN6       0.514000
     43 H4          -1.0750     4.1440     0.0900 h1         1 AN6       0.078700
     44 H5          -0.9810     1.2860    -0.9620 h1         1 AN6       0.035700
     45 H5'A        -2.3100     2.4240    -1.0990 h1         1 AN6       0.035700
     46 HA          -4.3270    -1.5980    -0.9280 h1         1 AN6       0.036700
     47 HB          -1.5540    -1.2200     0.3020 hc         1 AN6       0.045700
     48 HB'A        -2.0790    -0.5260    -1.2270 hc         1 AN6       0.045700
     49 HG          -3.4650    -0.0500     1.4440 h1         1 AN6       0.031700
     50 HG'A        -3.9140     0.7090    -0.0800 h1         1 AN6       0.031700
     51 H9           4.4760    -1.6220    -1.8470 h5         1 AN6       0.031100
     52 H8           0.0640     0.9020     2.1950 h5         1 AN6       0.112800
@<TRIPOS>BOND
     1     1     3 1   
     2     1    25 1   
     3     1    26 1   
     4     2    26 1   
     5     2    29 1   
     6     2    30 1   
     7     4     7 1   
     8     4    31 1   
     9     4    32 1   
    10     4    33 1   
    11     5     6 ar  
    12     5    11 ar  
    13     6     8 ar  
    14     6    51 1   
    15     7    17 1   
    16     7    34 1   
    17     7    35 1   
    18     8     9 ar  
    19     9    10 ar  
    20     9    15 1   
    21    10    11 ar  
    22    10    13 1   
    23    11    12 1   
    24    12    36 1   
    25    12    37 1   
    26    13    14 2   
    27    14    15 1   
    28    14    52 1   
    29    15    16 1   
    30    16    18 1   
    31    16    23 1   
    32    16    38 1   
    33    17    24 1   
    34    17    28 1   
    35    18    19 1   
    36    18    20 1   
    37    18    39 1   
    38    19    40 1   
    39    20    21 1   
    40    20    22 1   
    41    20    41 1   
    42    21    42 1   
    43    22    23 1   
    44    22    24 1   
    45    22    43 1   
    46    24    44 1   
    47    24    45 1   
    48    26    27 1   
    49    26    46 1   
    50    27    28 1   
    51    27    47 1   
    52    27    48 1   
    53    28    49 1   
    54    28    50 1   
@<TRIPOS>SUBSTRUCTURE
     1 AN6         1 TEMP              0 ****  ****    0 ROOT
