@<TRIPOS>MOLECULE
AN6
   52    54     1     0     0
SMALL
abcg2


@<TRIPOS>ATOM
      1 C           -2.8720    -2.9540    -0.5040 c          1 AN6       0.696000
      2 N           -4.4970    -1.9580     1.1730 n8         1 AN6      -1.002200
      3 O           -3.1650    -4.0640    -0.0160 o          1 AN6      -0.734000
      4 C1          -3.6120     2.6530     2.9090 c3         1 AN6      -0.088100
      5 N1           4.9870    -2.0210     0.8470 nb         1 AN6      -0.319000
      6 C2           4.9740    -0.6920     0.9010 ca         1 AN6       0.161900
      7 C3          -3.3280     2.9710     1.4500 c3         1 AN6       0.183800
      8 N3           3.9850     0.1340     0.6090 nb         1 AN6      -0.219000
      9 C4           2.8930    -0.5220     0.2210 ca         1 AN6       0.119500
     10 C5           2.7550    -1.8950     0.1130 ca         1 AN6      -0.091600
     11 C6           3.8830    -2.6650     0.4510 ca         1 AN6       0.443900
     12 N6           3.8910    -3.9980     0.3870 nv         1 AN6      -1.071900
     13 N7           1.4960    -2.2260    -0.3160 nc         1 AN6      -0.527100
     14 C8           0.8910    -1.0860    -0.4660 cd         1 AN6       0.442700
     15 N9           1.6840    -0.0090    -0.1580 na         1 AN6      -0.291300
     16 C7           1.3530     1.3900    -0.2000 c5         1 AN6       0.315300
     17 N10         -2.6860     1.8760     0.7430 n3         1 AN6      -0.727600
     18 C9           1.0610     1.9370    -1.5930 c5         1 AN6       0.077300
     19 O2           2.2480     2.1380    -2.3010 oh         1 AN6      -0.699000
     20 C10          0.3020     3.2160    -1.2260 c5         1 AN6       0.105300
     21 O3           1.1940     4.2200    -0.8090 oh         1 AN6      -0.712000
     22 C11         -0.5160     2.7510    -0.0240 c5         1 AN6       0.169300
     23 O4           0.1840     1.6250     0.5300 os         1 AN6      -0.424000
     24 C12         -1.9320     2.3460    -0.4020 c3         1 AN6       0.168800
     25 O5          -1.9940    -2.7370    -1.3650 o          1 AN6      -0.734000
     26 CA          -3.7110    -1.7330    -0.0350 c3         1 AN6       0.009500
     27 CB          -2.8340    -0.4980     0.1200 c3         1 AN6      -0.063400
     28 CG          -3.5920     0.7860     0.4200 c3         1 AN6       0.173800
     29 HN          -4.8550    -2.9050     1.1310 hn         1 AN6       0.385000
     30 HN'A        -3.8640    -1.9660     1.9660 hn         1 AN6       0.385000
     31 H1          -4.2640     1.7870     3.0280 hc         1 AN6       0.035367
     32 H1A         -2.6840     2.4460     3.4430 hc         1 AN6       0.035367
     33 H1B         -4.1050     3.4970     3.3930 hc         1 AN6       0.035367
     34 H3          -4.2530     3.2930     0.9440 h1         1 AN6       0.013700
     35 H3A         -2.6590     3.8350     1.4210 h1         1 AN6       0.013700
     36 HN6          3.0660    -4.5100     0.1290 hn         1 AN6       0.504000
     37 HN6A         4.7020    -4.5150     0.6790 hn         1 AN6       0.504000
     38 H6           2.2190     1.9130     0.2240 h2         1 AN6       0.104700
     39 H2           0.3830     1.2540    -2.1220 h1         1 AN6       0.067700
     40 HO2          2.0710     2.0410    -3.2410 ho         1 AN6       0.508000
     41 H7          -0.3400     3.5650    -2.0450 h1         1 AN6       0.046700
     42 HO3          1.8440     4.3500    -1.5100 ho         1 AN6       0.514000
     43 H4          -0.5500     3.5450     0.7300 h1         1 AN6       0.078700
     44 H5          -1.8780     1.5610    -1.1590 h1         1 AN6       0.035700
     45 H5'A        -2.4190     3.2040    -0.8920 h1         1 AN6       0.035700
     46 HA          -4.4210    -1.5330    -0.8520 h1         1 AN6       0.036700
     47 HB          -2.0990    -0.6580     0.9170 hc         1 AN6       0.045700
     48 HB'A        -2.2670    -0.3880    -0.8030 hc         1 AN6       0.045700
     49 HG          -4.2500     0.6150     1.2730 h1         1 AN6       0.031700
     50 HG'A        -4.2540     1.0360    -0.4280 h1         1 AN6       0.031700
     51 H9           5.9000    -0.2300     1.2270 h5         1 AN6       0.031100
     52 H8          -0.1330    -0.9810    -0.7920 h5         1 AN6       0.112800
@<TRIPOS>BOND
     1     1     3 1   
     2     1    25 1   
     3     1    26 1   
     4     2    26 1   
     5     2    29 1   
     6     2    30 1   
     7     4     7 1   
     8     4    31 1   
     9     4    32 1   
    10     4    33 1   
    11     5     6 ar  
    12     5    11 ar  
    13     6     8 ar  
    14     6    51 1   
    15     7    17 1   
    16     7    34 1   
    17     7    35 1   
    18     8     9 ar  
    19     9    10 ar  
    20     9    15 1   
    21    10    11 ar  
    22    10    13 1   
    23    11    12 1   
    24    12    36 1   
    25    12    37 1   
    26    13    14 2   
    27    14    15 1   
    28    14    52 1   
    29    15    16 1   
    30    16    18 1   
    31    16    23 1   
    32    16    38 1   
    33    17    24 1   
    34    17    28 1   
    35    18    19 1   
    36    18    20 1   
    37    18    39 1   
    38    19    40 1   
    39    20    21 1   
    40    20    22 1   
    41    20    41 1   
    42    21    42 1   
    43    22    23 1   
    44    22    24 1   
    45    22    43 1   
    46    24    44 1   
    47    24    45 1   
    48    26    27 1   
    49    26    46 1   
    50    27    28 1   
    51    27    47 1   
    52    27    48 1   
    53    28    49 1   
    54    28    50 1   
@<TRIPOS>SUBSTRUCTURE
     1 AN6         1 TEMP              0 ****  ****    0 ROOT
