@<TRIPOS>MOLECULE
AN8
   30    29     1     0     0
SMALL
bcc


@<TRIPOS>ATOM
      1 C           16.9590    44.0050    40.7660 c          1 AN8       0.926600
      2 N           16.9200    45.2710    42.8990 n8         1 AN8      -0.859800
      3 O           16.6110    42.8760    40.3620 o          1 AN8      -0.833300
      4 CA          16.0890    44.6320    41.8820 c3         1 AN8       0.020500
      5 CB          15.1510    45.6910    41.2970 c3         1 AN8      -0.049400
      6 CAA         11.6000    49.1610    40.4570 c3         1 AN8      -0.086100
      7 CAI         12.9340    49.6550    39.9140 c3         1 AN8      -0.072400
      8 CAJ         14.0460    48.6080    39.9020 c3         1 AN8      -0.074400
      9 CAK         13.7300    47.3690    39.0510 c3         1 AN8      -0.069400
     10 CAL         13.1200    46.1820    39.8100 c3         1 AN8      -0.070400
     11 CAM         14.1430    45.1540    40.2890 c3         1 AN8      -0.074400
     12 OXT         17.9170    44.6840    40.3450 o          1 AN8      -0.833300
     13 HN          16.3260    45.5710    43.6630 hn         1 AN8       0.304800
     14 HNA         17.5510    44.5900    43.3030 hn         1 AN8       0.304800
     15 HA          15.4630    43.8300    42.3030 h1         1 AN8      -0.002300
     16 HB          14.6040    46.1650    42.1210 hc         1 AN8       0.022700
     17 HBA         15.7630    46.4770    40.8440 hc         1 AN8       0.022700
     18 HAA         10.8620    49.9640    40.4710 hc         1 AN8       0.026700
     19 HAAA        11.1890    48.3530    39.8490 hc         1 AN8       0.026700
     20 HAAB        11.7000    48.7860    41.4770 hc         1 AN8       0.026700
     21 HAI         12.7900    50.0270    38.8940 hc         1 AN8       0.024200
     22 HAIA        13.2640    50.5140    40.5030 hc         1 AN8       0.024200
     23 HAJ         14.9540    49.0870    39.5260 hc         1 AN8       0.045200
     24 HAJA        14.2710    48.3080    40.9290 hc         1 AN8       0.045200
     25 HAK         13.0570    47.6700    38.2410 hc         1 AN8       0.034700
     26 HAKA        14.6410    47.0250    38.5520 hc         1 AN8       0.034700
     27 HAL         12.5400    46.5390    40.6660 hc         1 AN8       0.019200
     28 HALA        12.4060    45.6670    39.1600 hc         1 AN8       0.019200
     29 HAM         14.6680    44.7520    39.4180 hc         1 AN8       0.048700
     30 HAMA        13.6090    44.3080    40.7360 hc         1 AN8       0.048700
@<TRIPOS>BOND
     1     1     3 1   
     2     1     4 1   
     3     1    12 1   
     4     2     4 1   
     5     2    13 1   
     6     2    14 1   
     7     4     5 1   
     8     4    15 1   
     9     5    11 1   
    10     5    16 1   
    11     5    17 1   
    12     6     7 1   
    13     6    18 1   
    14     6    19 1   
    15     6    20 1   
    16     7     8 1   
    17     7    21 1   
    18     7    22 1   
    19     8     9 1   
    20     8    23 1   
    21     8    24 1   
    22     9    10 1   
    23     9    25 1   
    24     9    26 1   
    25    10    11 1   
    26    10    27 1   
    27    10    28 1   
    28    11    29 1   
    29    11    30 1   
@<TRIPOS>SUBSTRUCTURE
     1 AN8         1 TEMP              0 ****  ****    0 ROOT
