@<TRIPOS>MOLECULE
AN8
   30    29     1     0     0
SMALL
No Charge or Current Charge


@<TRIPOS>ATOM
      1 C           16.9740    43.8830    40.8070 c          1 AN8       0.716000
      2 N           16.8630    45.2290    43.0650 n8         1 AN8      -0.970200
      3 O           16.9570    42.6580    40.8130 o          1 AN8      -0.728000
      4 CA          16.1060    44.6470    41.9000 c3         1 AN8       0.020500
      5 CB          15.1840    45.7300    41.2730 c3         1 AN8      -0.049400
      6 CAA         11.6220    49.1470    40.6570 c3         1 AN8      -0.086100
      7 CAI         12.8680    49.6780    39.9220 c3         1 AN8      -0.072400
      8 CAJ         14.0350    48.6680    39.7780 c3         1 AN8      -0.074400
      9 CAK         13.7270    47.4130    38.9170 c3         1 AN8      -0.069400
     10 CAL         13.1550    46.1870    39.6810 c3         1 AN8      -0.070400
     11 CAM         14.2090    45.1770    40.2040 c3         1 AN8      -0.074400
     12 OXT         17.6710    44.5330    40.0370 o          1 AN8      -0.728000
     13 HN          16.1960    45.5980    43.7510 hn         1 AN8       0.360000
     14 HNA         17.3440    44.4720    43.5650 hn         1 AN8       0.360000
     15 HA          15.4400    43.8930    42.3440 h1         1 AN8      -0.002300
     16 HB          14.5970    46.2060    42.0680 hc         1 AN8       0.022700
     17 HBA         15.8090    46.5110    40.8230 hc         1 AN8       0.022700
     18 HAA         10.9000    49.9570    40.8140 hc         1 AN8       0.026700
     19 HAAA        11.1240    48.3650    40.0710 hc         1 AN8       0.026700
     20 HAAB        11.8930    48.7360    41.6370 hc         1 AN8       0.026700
     21 HAI         12.5710    50.0340    38.9280 hc         1 AN8       0.024200
     22 HAIA        13.2390    50.5560    40.4660 hc         1 AN8       0.024200
     23 HAJ         14.8740    49.2000    39.3130 hc         1 AN8       0.045200
     24 HAJA        14.3800    48.3750    40.7760 hc         1 AN8       0.045200
     25 HAK         13.0230    47.6970    38.1250 hc         1 AN8       0.034700
     26 HAKA        14.6440    47.1050    38.3990 hc         1 AN8       0.034700
     27 HAL         12.5270    46.5140    40.5160 hc         1 AN8       0.019200
     28 HALA        12.4910    45.6440    38.9970 hc         1 AN8       0.019200
     29 HAM         14.7810    44.7900    39.3510 hc         1 AN8       0.048700
     30 HAMA        13.6740    44.3190    40.6310 hc         1 AN8       0.048700
@<TRIPOS>BOND
     1     1     3 1   
     2     1     4 1   
     3     1    12 1   
     4     2     4 1   
     5     2    13 1   
     6     2    14 1   
     7     4     5 1   
     8     4    15 1   
     9     5    11 1   
    10     5    16 1   
    11     5    17 1   
    12     6     7 1   
    13     6    18 1   
    14     6    19 1   
    15     6    20 1   
    16     7     8 1   
    17     7    21 1   
    18     7    22 1   
    19     8     9 1   
    20     8    23 1   
    21     8    24 1   
    22     9    10 1   
    23     9    25 1   
    24     9    26 1   
    25    10    11 1   
    26    10    27 1   
    27    10    28 1   
    28    11    29 1   
    29    11    30 1   
@<TRIPOS>SUBSTRUCTURE
     1 AN8         1 TEMP              0 ****  ****    0 ROOT
