@<TRIPOS>MOLECULE
AN9
   72    74     1     0     0
SMALL
No Charge or Current Charge


@<TRIPOS>ATOM
      1 O19          1.4120    -3.5080    -2.7350 o          1 AN9      -0.582100
      2 C18          2.2410    -4.0180    -1.9900 c          1 AN9       0.614100
      3 C20          2.8440    -5.3900    -2.2910 c3         1 AN9      -0.163400
      4 N17          2.7490    -3.4090    -0.8520 ns         1 AN9      -0.161000
      5 C14          2.4630    -2.1750    -0.2030 ca         1 AN9       0.049000
      6 C13          1.2800    -1.4670    -0.5030 ca         1 AN9      -0.140000
      7 C12          0.9910    -0.2520     0.1240 ca         1 AN9      -0.063000
      8 C3           3.3660    -1.6500     0.7750 ca         1 AN9      -0.207600
      9 C2           3.0710    -0.4060     1.3980 ca         1 AN9      -0.098600
     10 C37          1.8810     0.2770     1.0620 ca         1 AN9      -0.102000
     11 C1           3.9920     0.2160     2.4280 c          1 AN9       0.608800
     12 O15          3.6100     1.1810     3.0830 o          1 AN9      -0.559100
     13 C6           5.3680    -0.3970     2.6380 ca         1 AN9      -0.207600
     14 C11          5.6540    -1.6520     2.0320 ca         1 AN9      -0.098600
     15 C10          6.9160    -2.2530     2.2360 ca         1 AN9      -0.102000
     16 C4           4.6390    -2.3800     1.1740 c          1 AN9       0.608800
     17 O16          4.8490    -3.5420     0.8380 o          1 AN9      -0.559100
     18 C7           6.3760     0.2470     3.4230 ca         1 AN9       0.049000
     19 N27          6.1170     1.5120     4.0230 ns         1 AN9      -0.161000
     20 C8           7.6210    -0.3910     3.6110 ca         1 AN9      -0.140000
     21 C9           7.8880    -1.6300     3.0220 ca         1 AN9      -0.063000
     22 C5           6.9400     2.4780     4.5820 c          1 AN9       0.614100
     23 O1           8.1640     2.4170     4.6000 o          1 AN9      -0.582100
     24 C15          6.1950     3.6880     5.1450 c3         1 AN9      -0.163400
     25 C16          6.2120     3.6560     6.6870 c3         1 AN9       0.179300
     26 N1           5.7050     4.8950     7.3500 n3         1 AN9      -0.733600
     27 C17          5.9610     4.9040     8.8210 c3         1 AN9       0.170800
     28 C19          7.4460     4.8280     9.2340 c3         1 AN9      -0.090350
     29 C21          4.2790     5.1890     7.0160 c3         1 AN9       0.170800
     30 C22          3.7560     6.5580     7.5000 c3         1 AN9      -0.090350
     31 C23          1.8210    -6.5020    -1.9830 c3         1 AN9       0.179300
     32 N2           2.2170    -7.8680    -2.4400 n3         1 AN9      -0.733600
     33 C24          1.1010    -8.8540    -2.3310 c3         1 AN9       0.170800
     34 C25         -0.1590    -8.5230    -3.1580 c3         1 AN9      -0.090350
     35 C26          3.4740    -8.3530    -1.7960 c3         1 AN9       0.170800
     36 C27          4.0490    -9.6640    -2.3730 c3         1 AN9      -0.090350
     37 H201         3.7400    -5.5370    -1.6790 hc         1 AN9       0.073700
     38 H202         3.0960    -5.4380    -3.3560 hc         1 AN9       0.073700
     39 H17          3.4710    -3.9480    -0.3880 hn         1 AN9       0.194000
     40 H13          0.5560    -1.8520    -1.2140 ha         1 AN9       0.158000
     41 H12          0.0750     0.2830    -0.1180 ha         1 AN9       0.124000
     42 H37          1.6360     1.2280     1.5320 ha         1 AN9       0.141000
     43 H10          7.1510    -3.2140     1.7840 ha         1 AN9       0.141000
     44 H27          5.1330     1.7520     4.0410 hn         1 AN9       0.194000
     45 H8           8.3960     0.0520     4.2270 ha         1 AN9       0.158000
     46 H9           8.8530    -2.1100     3.1760 ha         1 AN9       0.124000
     47 H151         5.1590     3.6760     4.7910 hc         1 AN9       0.073700
     48 H152         6.7030     4.6010     4.8130 hc         1 AN9       0.073700
     49 H161         7.2550     3.4820     6.9800 h1         1 AN9       0.045950
     50 H162         5.6370     2.7840     7.0300 h1         1 AN9       0.045950
     51 H171         5.5780     5.8330     9.2590 h1         1 AN9       0.029075
     52 H172         5.4200     4.0780     9.3030 h1         1 AN9       0.029075
     53 H191         7.8680     3.8350     9.0420 hc         1 AN9       0.037617
     54 H192         8.0370     5.5760     8.6930 hc         1 AN9       0.037617
     55 H193         7.5450     5.0260    10.3080 hc         1 AN9       0.037617
     56 H211         4.1430     5.1880     5.9280 h1         1 AN9       0.029075
     57 H212         3.6270     4.4020     7.4200 h1         1 AN9       0.029075
     58 H221         3.6380     6.5830     8.5890 hc         1 AN9       0.037617
     59 H222         4.4370     7.3620     7.1980 hc         1 AN9       0.037617
     60 H223         2.7730     6.7590     7.0570 hc         1 AN9       0.037617
     61 H231         0.8860    -6.2050    -2.4740 h1         1 AN9       0.045950
     62 H232         1.6210    -6.5110    -0.9020 h1         1 AN9       0.045950
     63 H241         1.4380    -9.8360    -2.6830 h1         1 AN9       0.029075
     64 H242         0.8080    -8.9770    -1.2790 h1         1 AN9       0.029075
     65 H251        -0.7060    -7.6720    -2.7380 hc         1 AN9       0.037617
     66 H252         0.1090    -8.2950    -4.1970 hc         1 AN9       0.037617
     67 H253        -0.8390    -9.3820    -3.1620 hc         1 AN9       0.037617
     68 H261         4.2670    -7.6050    -1.9160 h1         1 AN9       0.029075
     69 H262         3.3180    -8.4830    -0.7160 h1         1 AN9       0.029075
     70 H271         3.4290   -10.5280    -2.1060 hc         1 AN9       0.037617
     71 H272         4.1260    -9.6060    -3.4650 hc         1 AN9       0.037617
     72 H273         5.0520    -9.8410    -1.9690 hc         1 AN9       0.037617
@<TRIPOS>BOND
     1     1     2 2   
     2     2     3 1   
     3     2     4 1   
     4     3    31 1   
     5     3    37 1   
     6     3    38 1   
     7     4     5 1   
     8     4    39 1   
     9     5     6 ar  
    10     5     8 ar  
    11     6     7 ar  
    12     6    40 1   
    13     7    10 ar  
    14     7    41 1   
    15     8     9 ar  
    16     8    16 1   
    17     9    10 ar  
    18     9    11 1   
    19    10    42 1   
    20    11    12 2   
    21    11    13 1   
    22    13    14 ar  
    23    13    18 ar  
    24    14    15 ar  
    25    14    16 1   
    26    15    21 ar  
    27    15    43 1   
    28    16    17 2   
    29    18    19 1   
    30    18    20 ar  
    31    19    22 1   
    32    19    44 1   
    33    20    21 ar  
    34    20    45 1   
    35    21    46 1   
    36    22    23 2   
    37    22    24 1   
    38    24    25 1   
    39    24    47 1   
    40    24    48 1   
    41    25    26 1   
    42    25    49 1   
    43    25    50 1   
    44    26    27 1   
    45    26    29 1   
    46    27    28 1   
    47    27    51 1   
    48    27    52 1   
    49    28    53 1   
    50    28    54 1   
    51    28    55 1   
    52    29    30 1   
    53    29    56 1   
    54    29    57 1   
    55    30    58 1   
    56    30    59 1   
    57    30    60 1   
    58    31    32 1   
    59    31    61 1   
    60    31    62 1   
    61    32    33 1   
    62    32    35 1   
    63    33    34 1   
    64    33    63 1   
    65    33    64 1   
    66    34    65 1   
    67    34    66 1   
    68    34    67 1   
    69    35    36 1   
    70    35    68 1   
    71    35    69 1   
    72    36    70 1   
    73    36    71 1   
    74    36    72 1   
@<TRIPOS>SUBSTRUCTURE
     1 AN9         1 TEMP              0 ****  ****    0 ROOT
