@<TRIPOS>MOLECULE
AN9
   72    74     1     0     0
SMALL
abcg2


@<TRIPOS>ATOM
      1 O19          0.5280    -4.1180    -1.4040 o          1 AN9      -0.582100
      2 C18          1.7070    -4.3340    -1.2010 c          1 AN9       0.614100
      3 C20          2.4310    -5.5060    -1.8210 c3         1 AN9      -0.163400
      4 N17          2.5150    -3.5480    -0.4280 ns         1 AN9      -0.161000
      5 C14          2.2330    -2.3680     0.2350 ca         1 AN9       0.049000
      6 C13          0.9930    -1.7270     0.1190 ca         1 AN9      -0.140000
      7 C12          0.7520    -0.5400     0.7780 ca         1 AN9      -0.063000
      8 C3           3.2270    -1.7800     1.0570 ca         1 AN9      -0.207600
      9 C2           2.9540    -0.5660     1.7090 ca         1 AN9      -0.098600
     10 C37          1.7240     0.0530     1.5680 ca         1 AN9      -0.102000
     11 C1           3.9630     0.1160     2.5630 c          1 AN9       0.608800
     12 O15          3.7010     1.2280     2.9990 o          1 AN9      -0.559100
     13 C6           5.2250    -0.5710     2.8670 ca         1 AN9      -0.207600
     14 C11          5.4860    -1.7990     2.2390 ca         1 AN9      -0.098600
     15 C10          6.6500    -2.5000     2.5050 ca         1 AN9      -0.102000
     16 C4           4.5450    -2.3990     1.2560 c          1 AN9       0.608800
     17 O16          4.8940    -3.4020     0.6500 o          1 AN9      -0.559100
     18 C7           6.1770    -0.0360     3.7720 ca         1 AN9       0.049000
     19 N27          5.9370     1.1930     4.3580 ns         1 AN9      -0.161000
     20 C8           7.3420    -0.7690     4.0310 ca         1 AN9      -0.140000
     21 C9           7.5640    -1.9790     3.4070 ca         1 AN9      -0.063000
     22 C5           6.6530     1.8630     5.3100 c          1 AN9       0.614100
     23 O1           7.6430     1.4220     5.8610 o          1 AN9      -0.582100
     24 C15          6.1170     3.2460     5.5990 c3         1 AN9      -0.163400
     25 C16          6.3290     3.6700     7.0480 c3         1 AN9       0.179300
     26 N1           5.8510     5.0230     7.2760 n3         1 AN9      -0.733600
     27 C17          6.5730     5.6830     8.3540 c3         1 AN9       0.170800
     28 C19          7.9700     6.1260     7.9500 c3         1 AN9      -0.090350
     29 C21          4.4100     5.0610     7.4870 c3         1 AN9       0.170800
     30 C22          3.7970     6.4050     7.1270 c3         1 AN9      -0.090350
     31 C23          1.5230    -6.7120    -2.0300 c3         1 AN9       0.179300
     32 N2           2.2370    -7.8130    -2.6550 n3         1 AN9      -0.733600
     33 C24          1.3470    -8.6640    -3.4310 c3         1 AN9       0.170800
     34 C25          0.9370    -8.0400    -4.7560 c3         1 AN9      -0.090350
     35 C26          3.0080    -8.5710    -1.6780 c3         1 AN9       0.170800
     36 C27          4.1290    -9.3860    -2.3010 c3         1 AN9      -0.090350
     37 H201         3.3070    -5.7750    -1.2260 hc         1 AN9       0.073700
     38 H202         2.8160    -5.1780    -2.7930 hc         1 AN9       0.073700
     39 H17          3.4720    -3.8620    -0.3040 hn         1 AN9       0.194000
     40 H13          0.2190    -2.1580    -0.4930 ha         1 AN9       0.158000
     41 H12         -0.2140    -0.0660     0.6700 ha         1 AN9       0.124000
     42 H37          1.5190     0.9880     2.0680 ha         1 AN9       0.141000
     43 H10          6.8460    -3.4450     2.0210 ha         1 AN9       0.141000
     44 H27          5.0910     1.6420     4.0230 hn         1 AN9       0.194000
     45 H8           8.0760    -0.3870     4.7190 ha         1 AN9       0.158000
     46 H9           8.4730    -2.5230     3.6250 ha         1 AN9       0.124000
     47 H151         5.0630     3.3170     5.3200 hc         1 AN9       0.073700
     48 H152         6.6500     3.9440     4.9450 hc         1 AN9       0.073700
     49 H161         7.3970     3.6290     7.2620 h1         1 AN9       0.045950
     50 H162         5.8510     2.9470     7.7270 h1         1 AN9       0.045950
     51 H171         6.0110     6.5700     8.6490 h1         1 AN9       0.029075
     52 H172         6.6240     5.0470     9.2530 h1         1 AN9       0.029075
     53 H191         8.6090     5.2880     7.6640 hc         1 AN9       0.037617
     54 H192         7.9260     6.8160     7.1070 hc         1 AN9       0.037617
     55 H193         8.4600     6.6340     8.7800 hc         1 AN9       0.037617
     56 H211         3.9460     4.2980     6.8590 h1         1 AN9       0.029075
     57 H212         4.1510     4.7920     8.5230 h1         1 AN9       0.029075
     58 H221         4.1980     7.2210     7.7310 hc         1 AN9       0.037617
     59 H222         3.9810     6.6410     6.0790 hc         1 AN9       0.037617
     60 H223         2.7180     6.3850     7.2860 hc         1 AN9       0.037617
     61 H231         0.6960    -6.4110    -2.6730 h1         1 AN9       0.045950
     62 H232         1.0690    -7.0140    -1.0720 h1         1 AN9       0.045950
     63 H241         1.8660    -9.5990    -3.6470 h1         1 AN9       0.029075
     64 H242         0.4500    -8.9440    -2.8540 h1         1 AN9       0.029075
     65 H251         0.3790    -7.1120    -4.6260 hc         1 AN9       0.037617
     66 H252         1.8150    -7.8210    -5.3650 hc         1 AN9       0.037617
     67 H253         0.3000    -8.7260    -5.3140 hc         1 AN9       0.037617
     68 H261         3.4590    -7.8660    -0.9760 h1         1 AN9       0.029075
     69 H262         2.3570    -9.2230    -1.0730 h1         1 AN9       0.029075
     70 H271         3.7620   -10.1660    -2.9690 hc         1 AN9       0.037617
     71 H272         4.8010    -8.7430    -2.8700 hc         1 AN9       0.037617
     72 H273         4.7120    -9.8780    -1.5220 hc         1 AN9       0.037617
@<TRIPOS>BOND
     1     1     2 2   
     2     2     3 1   
     3     2     4 1   
     4     3    31 1   
     5     3    37 1   
     6     3    38 1   
     7     4     5 1   
     8     4    39 1   
     9     5     6 ar  
    10     5     8 ar  
    11     6     7 ar  
    12     6    40 1   
    13     7    10 ar  
    14     7    41 1   
    15     8     9 ar  
    16     8    16 1   
    17     9    10 ar  
    18     9    11 1   
    19    10    42 1   
    20    11    12 2   
    21    11    13 1   
    22    13    14 ar  
    23    13    18 ar  
    24    14    15 ar  
    25    14    16 1   
    26    15    21 ar  
    27    15    43 1   
    28    16    17 2   
    29    18    19 1   
    30    18    20 ar  
    31    19    22 1   
    32    19    44 1   
    33    20    21 ar  
    34    20    45 1   
    35    21    46 1   
    36    22    23 2   
    37    22    24 1   
    38    24    25 1   
    39    24    47 1   
    40    24    48 1   
    41    25    26 1   
    42    25    49 1   
    43    25    50 1   
    44    26    27 1   
    45    26    29 1   
    46    27    28 1   
    47    27    51 1   
    48    27    52 1   
    49    28    53 1   
    50    28    54 1   
    51    28    55 1   
    52    29    30 1   
    53    29    56 1   
    54    29    57 1   
    55    30    58 1   
    56    30    59 1   
    57    30    60 1   
    58    31    32 1   
    59    31    61 1   
    60    31    62 1   
    61    32    33 1   
    62    32    35 1   
    63    33    34 1   
    64    33    63 1   
    65    33    64 1   
    66    34    65 1   
    67    34    66 1   
    68    34    67 1   
    69    35    36 1   
    70    35    68 1   
    71    35    69 1   
    72    36    70 1   
    73    36    71 1   
    74    36    72 1   
@<TRIPOS>SUBSTRUCTURE
     1 AN9         1 TEMP              0 ****  ****    0 ROOT
