@<TRIPOS>MOLECULE
ANA
   47    47     1     0     0
SMALL
No Charge or Current Charge


@<TRIPOS>ATOM
      1 C1           2.9340    -0.9500     0.2120 c          1 ANA       0.686000
      2 C2           2.2510     0.5230     0.1830 c6         1 ANA       0.260000
      3 C3           1.8160     0.8590    -1.2670 c6         1 ANA      -0.085400
      4 C4           0.5770     0.0480    -1.7040 c6         1 ANA       0.160300
      5 C5          -0.6030     0.3130    -0.7180 c6         1 ANA       0.048700
      6 C6          -0.1300    -0.0320     0.7250 c6         1 ANA       0.169300
      7 C7          -1.1760     0.3860     1.8160 c3         1 ANA       0.148300
      8 C8          -1.0320    -0.4170     3.1470 c3         1 ANA       0.138300
      9 C9          -2.0300     0.0340     4.2480 c3         1 ANA       0.124600
     10 C11         -3.9720    -1.0050    -2.0920 c3         1 ANA      -0.185100
     11 CM4         -0.6950     0.1900    -5.2500 c3         1 ANA      -0.160100
     12 N5          -1.8210    -0.4530    -1.0760 ns         1 ANA      -0.498900
     13 O1A          2.3350    -1.8340     0.8130 o          1 ANA      -0.698500
     14 O1B          4.1610    -0.9920     0.2220 o          1 ANA      -0.698500
     15 O2           3.1810     1.5760     0.5680 os         1 ANA      -0.455000
     16 O4           0.2450     0.4190    -3.0610 os         1 ANA      -0.447100
     17 O6           1.0880     0.7040     1.0560 os         1 ANA      -0.507000
     18 O7          -1.0200     1.7940     2.0780 oh         1 ANA      -0.729000
     19 O8          -1.2580    -1.8180     2.9100 oh         1 ANA      -0.614000
     20 O9          -1.9400    -0.8420     5.3880 oh         1 ANA      -0.707000
     21 O10         -2.9380     1.1680    -2.2280 o          1 ANA      -0.612100
     22 OA4         -0.6170    -1.6290    -3.6500 o          1 ANA      -0.505000
     23 H31          1.5960     1.9320    -1.3470 hc         1 ANA       0.065700
     24 H32          2.6480     0.6600    -1.9550 hc         1 ANA       0.065700
     25 H4           0.8410    -1.0200    -1.6790 h1         1 ANA       0.094700
     26 H5          -0.8440     1.3860    -0.7500 h1         1 ANA       0.099700
     27 H6           0.0410    -1.1140     0.7960 h1         1 ANA       0.091700
     28 H7          -2.1860     0.1900     1.4290 h1         1 ANA       0.055700
     29 H8          -0.0140    -0.2590     3.5310 h1         1 ANA       0.112700
     30 H91         -1.7990     1.0650     4.5480 h1         1 ANA       0.019700
     31 H92         -3.0510     0.0250     3.8420 h1         1 ANA       0.019700
     32 H111        -4.7990    -0.5940    -2.6820 hc         1 ANA       0.055367
     33 H112        -3.5260    -1.8810    -2.5780 hc         1 ANA       0.055367
     34 H113        -4.3200    -1.4190    -1.1390 hc         1 ANA       0.055367
     35 H121         4.3710     2.4060     2.0740 h1         1 ANA       0.024700
     36 H122         2.8120     1.7690     2.6290 h1         1 ANA       0.024700
     37 H123         4.1320     0.6540     2.2090 h1         1 ANA       0.024700
     38 HM41        -1.1720    -0.5020    -5.9520 hc         1 ANA       0.062700
     39 HM42        -1.3140     1.0760    -5.0680 hc         1 ANA       0.062700
     40 HM43         0.2200     0.6270    -5.6630 hc         1 ANA       0.062700
     41 HN5         -1.8720    -1.4300    -0.8090 hn         1 ANA       0.314500
     42 HO7         -0.0710     1.9540     1.8380 ho         1 ANA       0.524000
     43 HO8         -1.5300    -2.1680     3.7890 ho         1 ANA       0.416000
     44 HO9         -2.5380    -0.4780     6.0820 ho         1 ANA       0.486000
     45 C10         -2.8780     0.0180    -1.8200 c          1 ANA       0.600100
     46 C12          3.6440     1.5960     1.9340 c3         1 ANA       0.168900
     47 CA4         -0.3700    -0.4610    -3.9130 c          1 ANA       0.604100
@<TRIPOS>BOND
     1     1     2 1   
     2     1    13 1   
     3     1    14 1   
     4     2     3 1   
     5     2    15 1   
     6     2    17 1   
     7     3     4 1   
     8     3    23 1   
     9     3    24 1   
    10     4     5 1   
    11     4    16 1   
    12     4    25 1   
    13     5     6 1   
    14     5    12 1   
    15     5    26 1   
    16     6     7 1   
    17     6    17 1   
    18     6    27 1   
    19     7     8 1   
    20     7    18 1   
    21     7    28 1   
    22     8     9 1   
    23     8    19 1   
    24     8    29 1   
    25     9    20 1   
    26     9    30 1   
    27     9    31 1   
    28    10    32 1   
    29    10    33 1   
    30    10    34 1   
    31    10    45 1   
    32    11    38 1   
    33    11    39 1   
    34    11    40 1   
    35    11    47 1   
    36    12    41 1   
    37    12    45 1   
    38    15    46 1   
    39    16    47 1   
    40    18    42 1   
    41    19    43 1   
    42    20    44 1   
    43    21    45 2   
    44    22    47 2   
    45    35    46 1   
    46    36    46 1   
    47    37    46 1   
@<TRIPOS>SUBSTRUCTURE
     1 ANA         1 TEMP              0 ****  ****    0 ROOT
