@<TRIPOS>MOLECULE
ANA
   47    47     1     0     0
SMALL
abcg2


@<TRIPOS>ATOM
      1 C1           2.7160    -0.9360     0.3120 c          1 ANA       0.686000
      2 C2           2.1090     0.5080     0.2560 c6         1 ANA       0.260000
      3 C3           1.7390     0.9160    -1.1660 c6         1 ANA      -0.085400
      4 C4           0.5610     0.0890    -1.6390 c6         1 ANA       0.160300
      5 C5          -0.6190     0.2580    -0.6860 c6         1 ANA       0.048700
      6 C6          -0.1750    -0.0740     0.7470 c6         1 ANA       0.169300
      7 C7          -1.2400     0.3260     1.7690 c3         1 ANA       0.148300
      8 C8          -0.9280    -0.2370     3.1680 c3         1 ANA       0.138300
      9 C9          -1.9480     0.2440     4.1890 c3         1 ANA       0.124600
     10 C11         -3.7930    -1.2480    -2.0870 c3         1 ANA      -0.185100
     11 CM4         -0.6710     0.4220    -5.1050 c3         1 ANA      -0.160100
     12 N5          -1.7280    -0.5790    -1.0650 ns         1 ANA      -0.498900
     13 O1A          2.3510    -1.6800     1.2340 o          1 ANA      -0.698500
     14 O1B          3.5490    -1.1830    -0.5810 o          1 ANA      -0.698500
     15 O2           3.0410     1.4430     0.6990 os         1 ANA      -0.455000
     16 O4           0.1780     0.5560    -2.9370 os         1 ANA      -0.447100
     17 O6           0.9810     0.6510     1.0910 os         1 ANA      -0.507000
     18 O7          -1.4170     1.7240     1.7890 oh         1 ANA      -0.729000
     19 O8          -0.8600    -1.6450     3.1290 oh         1 ANA      -0.614000
     20 O9          -1.6020    -0.2740     5.4530 oh         1 ANA      -0.707000
     21 O10         -3.0230     1.0250    -2.0030 o          1 ANA      -0.612100
     22 OA4         -0.2320    -1.5020    -3.7340 o          1 ANA      -0.505000
     23 H31          1.4690     1.9780    -1.1740 hc         1 ANA       0.065700
     24 H32          2.5910     0.7770    -1.8300 hc         1 ANA       0.065700
     25 H4           0.8440    -0.9660    -1.6980 h1         1 ANA       0.094700
     26 H5          -0.9520     1.2970    -0.7290 h1         1 ANA       0.099700
     27 H6           0.0030    -1.1530     0.8240 h1         1 ANA       0.091700
     28 H7          -2.1980    -0.0980     1.4460 h1         1 ANA       0.055700
     29 H8           0.0680     0.1000     3.4760 h1         1 ANA       0.112700
     30 H91         -1.9670     1.3380     4.1940 h1         1 ANA       0.019700
     31 H92         -2.9500    -0.0890     3.8760 h1         1 ANA       0.019700
     32 H111        -4.6520    -0.8420    -2.6150 hc         1 ANA       0.055367
     33 H112        -3.3110    -1.9920    -2.7230 hc         1 ANA       0.055367
     34 H113        -4.1430    -1.7650    -1.1920 hc         1 ANA       0.055367
     35 H121         4.2540     2.0730     2.1780 h1         1 ANA       0.024700
     36 H122         2.9170     1.0680     2.7550 h1         1 ANA       0.024700
     37 H123         4.3060     0.3250     1.9370 h1         1 ANA       0.024700
     38 HM41        -1.0170    -0.2820    -5.8570 hc         1 ANA       0.062700
     39 HM42        -1.4770     1.1170    -4.8670 hc         1 ANA       0.062700
     40 HM43         0.1490     1.0090    -5.5180 hc         1 ANA       0.062700
     41 HN5         -1.6160    -1.5740    -0.9470 hn         1 ANA       0.314500
     42 HO7         -0.5470     2.1260     1.8960 ho         1 ANA       0.524000
     43 HO8         -1.7420    -1.9890     2.9500 ho         1 ANA       0.416000
     44 HO9         -2.2330     0.0660     6.0930 ho         1 ANA       0.486000
     45 C10         -2.8250    -0.1480    -1.7260 c          1 ANA       0.600100
     46 C12          3.6470     1.1980     1.9530 c3         1 ANA       0.168900
     47 CA4         -0.2280    -0.3040    -3.8700 c          1 ANA       0.604100
@<TRIPOS>BOND
     1     1     2 1   
     2     1    13 1   
     3     1    14 1   
     4     2     3 1   
     5     2    15 1   
     6     2    17 1   
     7     3     4 1   
     8     3    23 1   
     9     3    24 1   
    10     4     5 1   
    11     4    16 1   
    12     4    25 1   
    13     5     6 1   
    14     5    12 1   
    15     5    26 1   
    16     6     7 1   
    17     6    17 1   
    18     6    27 1   
    19     7     8 1   
    20     7    18 1   
    21     7    28 1   
    22     8     9 1   
    23     8    19 1   
    24     8    29 1   
    25     9    20 1   
    26     9    30 1   
    27     9    31 1   
    28    10    32 1   
    29    10    33 1   
    30    10    34 1   
    31    10    45 1   
    32    11    38 1   
    33    11    39 1   
    34    11    40 1   
    35    11    47 1   
    36    12    41 1   
    37    12    45 1   
    38    15    46 1   
    39    16    47 1   
    40    18    42 1   
    41    19    43 1   
    42    20    44 1   
    43    21    45 2   
    44    22    47 2   
    45    35    46 1   
    46    36    46 1   
    47    37    46 1   
@<TRIPOS>SUBSTRUCTURE
     1 ANA         1 TEMP              0 ****  ****    0 ROOT
