@<TRIPOS>MOLECULE
ANB
   45    48     1     0     0
SMALL
No Charge or Current Charge


@<TRIPOS>ATOM
      1 C1           1.5640     0.0930    -2.5840 c2         1 ANB      -0.152200
      2 C10          0.3690     0.5600    -1.7400 c6         1 ANB       0.005400
      3 C11          1.7440     0.2750     0.5030 c6         1 ANB      -0.073400
      4 C12          1.7780    -0.3530     1.9280 c6         1 ANB      -0.051400
      5 C13          0.5150     0.0300     2.7540 c5         1 ANB      -0.155000
      6 C14         -0.7460    -0.4090     1.9480 c5         1 ANB      -0.061700
      7 C15         -1.9050    -0.2370     2.9770 c5         1 ANB      -0.067400
      8 C16         -1.2200    -0.6380     4.3300 c5         1 ANB      -0.191400
      9 C17          0.2830    -0.8030     4.0320 c          1 ANB       0.580100
     10 C18          0.5890     1.5510     3.1320 c3         1 ANB      -0.079100
     11 C19          0.4460     2.1210    -1.7400 c3         1 ANB      -0.076100
     12 C2           1.4450    -0.5450    -3.7700 ce         1 ANB      -0.291200
     13 C3           0.1390    -0.8860    -4.3790 c          1 ANB       0.566500
     14 C4          -1.0450    -0.4950    -3.5840 ce         1 ANB      -0.300200
     15 C5          -0.9680     0.1480    -2.3960 c2         1 ANB      -0.041400
     16 C6          -2.2260     0.4590    -1.5920 c6         1 ANB      -0.049200
     17 C7          -2.1430    -0.1710    -0.1870 c6         1 ANB      -0.069400
     18 C8          -0.8560     0.2730     0.5570 c6         1 ANB      -0.044700
     19 C9           0.4300    -0.0660    -0.2900 c6         1 ANB      -0.039700
     20 O1           0.0470    -1.4580    -5.4550 o          1 ANB      -0.527100
     21 O2           1.0250    -1.6520     4.5110 o          1 ANB      -0.509100
     22 HC1          2.5580     0.3390    -2.2070 ha         1 ANB       0.179000
     23 H111         1.8790     1.3610     0.5760 hc         1 ANB       0.043200
     24 H112         2.6210    -0.0980    -0.0410 hc         1 ANB       0.043200
     25 H121         2.6910    -0.0440     2.4560 hc         1 ANB       0.053700
     26 H122         1.8390    -1.4460     1.8320 hc         1 ANB       0.053700
     27 HC41        -0.6680    -1.4800     1.7140 hc         1 ANB       0.050700
     28 H151        -2.2740     0.7950     3.0020 hc         1 ANB       0.049700
     29 H152        -2.7630    -0.8780     2.7420 hc         1 ANB       0.049700
     30 H161        -1.3350     0.1930     5.0340 hc         1 ANB       0.073200
     31 H162        -1.6190    -1.5450     4.7960 hc         1 ANB       0.073200
     32 H181         0.6250     2.2020     2.2520 hc         1 ANB       0.041033
     33 H182        -0.2660     1.8850     3.7300 hc         1 ANB       0.041033
     34 H183         1.4880     1.7590     3.7250 hc         1 ANB       0.041033
     35 H191         0.3100     2.5150    -2.7540 hc         1 ANB       0.041700
     36 H192        -0.3200     2.5850    -1.1090 hc         1 ANB       0.041700
     37 H193         1.4180     2.4810    -1.3870 hc         1 ANB       0.041700
     38 HC2          2.3220    -0.8370    -4.3450 ha         1 ANB       0.200000
     39 HC4         -2.0030    -0.7790    -4.0130 ha         1 ANB       0.198000
     40 HC61        -3.1180     0.0790    -2.1080 hc         1 ANB       0.055200
     41 HC62        -2.3660     1.5450    -1.5110 hc         1 ANB       0.055200
     42 HC71        -2.1640    -1.2660    -0.2790 hc         1 ANB       0.047200
     43 HC72        -3.0340     0.1120     0.3890 hc         1 ANB       0.047200
     44 HC8         -0.9150     1.3580     0.7120 hc         1 ANB       0.053700
     45 HC9          0.4340    -1.1570    -0.4330 hc         1 ANB       0.055700
@<TRIPOS>BOND
     1     1     2 1   
     2     1    12 2   
     3     1    22 1   
     4     2    11 1   
     5     2    15 1   
     6     2    19 1   
     7     3     4 1   
     8     3    19 1   
     9     3    23 1   
    10     3    24 1   
    11     4     5 1   
    12     4    25 1   
    13     4    26 1   
    14     5     6 1   
    15     5     9 1   
    16     5    10 1   
    17     6     7 1   
    18     6    18 1   
    19     6    27 1   
    20     7     8 1   
    21     7    28 1   
    22     7    29 1   
    23     8     9 1   
    24     8    30 1   
    25     8    31 1   
    26     9    21 2   
    27    10    32 1   
    28    10    33 1   
    29    10    34 1   
    30    11    35 1   
    31    11    36 1   
    32    11    37 1   
    33    12    13 1   
    34    12    38 1   
    35    13    14 1   
    36    13    20 2   
    37    14    15 2   
    38    14    39 1   
    39    15    16 1   
    40    16    17 1   
    41    16    40 1   
    42    16    41 1   
    43    17    18 1   
    44    17    42 1   
    45    17    43 1   
    46    18    19 1   
    47    18    44 1   
    48    19    45 1   
@<TRIPOS>SUBSTRUCTURE
     1 ANB         1 TEMP              0 ****  ****    0 ROOT
