@<TRIPOS>MOLECULE
ANB
   45    48     1     0     0
SMALL
abcg2


@<TRIPOS>ATOM
      1 C1           1.5170     0.0870    -2.5190 c2         1 ANB      -0.152200
      2 C10          0.3530     0.5730    -1.7170 c6         1 ANB       0.005400
      3 C11          1.7040     0.2390     0.4650 c6         1 ANB      -0.073400
      4 C12          1.7540    -0.3660     1.8720 c6         1 ANB      -0.051400
      5 C13          0.5220     0.0360     2.6640 c5         1 ANB      -0.155000
      6 C14         -0.7360    -0.3770     1.8930 c5         1 ANB      -0.061700
      7 C15         -1.8610    -0.2580     2.9220 c5         1 ANB      -0.067400
      8 C16         -1.2060    -0.8100     4.1960 c5         1 ANB      -0.191400
      9 C17          0.2950    -0.6730     3.9820 c          1 ANB       0.580100
     10 C18          0.5520     1.5340     3.0200 c3         1 ANB      -0.079100
     11 C19          0.4610     2.1120    -1.6730 c3         1 ANB      -0.076100
     12 C2           1.4260    -0.6070    -3.6550 ce         1 ANB      -0.291200
     13 C3           0.1260    -0.9700    -4.2220 c          1 ANB       0.566500
     14 C4          -1.0460    -0.5200    -3.4780 ce         1 ANB      -0.300200
     15 C5          -0.9630     0.1840    -2.3390 c2         1 ANB      -0.041400
     16 C6          -2.1890     0.5620    -1.5750 c6         1 ANB      -0.049200
     17 C7          -2.1360    -0.0550    -0.1780 c6         1 ANB      -0.069400
     18 C8          -0.8490     0.3180     0.5460 c6         1 ANB      -0.044700
     19 C9           0.3970    -0.0620    -0.2830 c6         1 ANB      -0.039700
     20 O1           0.0290    -1.6120    -5.2600 o          1 ANB      -0.527100
     21 O2           1.1510    -1.0640     4.7380 o          1 ANB      -0.509100
     22 HC1          2.5010     0.3570    -2.1530 ha         1 ANB       0.179000
     23 H111         1.8550     1.3190     0.5260 hc         1 ANB       0.043200
     24 H112         2.5540    -0.1530    -0.0960 hc         1 ANB       0.043200
     25 H121         2.6720    -0.0460     2.3700 hc         1 ANB       0.053700
     26 H122         1.7990    -1.4570     1.7960 hc         1 ANB       0.053700
     27 HC41        -0.6270    -1.4520     1.6800 hc         1 ANB       0.050700
     28 H151        -2.1740     0.7800     3.0550 hc         1 ANB       0.049700
     29 H152        -2.7470    -0.8250     2.6360 hc         1 ANB       0.049700
     30 H161        -1.5130    -0.3060     5.1140 hc         1 ANB       0.073200
     31 H162        -1.4320    -1.8710     4.3330 hc         1 ANB       0.073200
     32 H181         0.5830     2.1620     2.1310 hc         1 ANB       0.041033
     33 H182        -0.3150     1.8480     3.6020 hc         1 ANB       0.041033
     34 H183         1.4420     1.7590     3.6110 hc         1 ANB       0.041033
     35 H191         0.2590     2.5330    -2.6590 hc         1 ANB       0.041700
     36 H192        -0.2430     2.5540    -0.9710 hc         1 ANB       0.041700
     37 H193         1.4620     2.4270    -1.3810 hc         1 ANB       0.041700
     38 HC2          2.3150    -0.9110    -4.1940 ha         1 ANB       0.200000
     39 HC4         -2.0170    -0.7870    -3.8810 ha         1 ANB       0.198000
     40 HC61        -3.0820     0.2290    -2.1060 hc         1 ANB       0.055200
     41 HC62        -2.2600     1.6510    -1.4880 hc         1 ANB       0.055200
     42 HC71        -2.2150    -1.1440    -0.2590 hc         1 ANB       0.047200
     43 HC72        -3.0010     0.2830     0.3960 hc         1 ANB       0.047200
     44 HC8         -0.8600     1.4030     0.7060 hc         1 ANB       0.053700
     45 HC9          0.3490    -1.1490    -0.4380 hc         1 ANB       0.055700
@<TRIPOS>BOND
     1     1     2 1   
     2     1    12 2   
     3     1    22 1   
     4     2    11 1   
     5     2    15 1   
     6     2    19 1   
     7     3     4 1   
     8     3    19 1   
     9     3    23 1   
    10     3    24 1   
    11     4     5 1   
    12     4    25 1   
    13     4    26 1   
    14     5     6 1   
    15     5     9 1   
    16     5    10 1   
    17     6     7 1   
    18     6    18 1   
    19     6    27 1   
    20     7     8 1   
    21     7    28 1   
    22     7    29 1   
    23     8     9 1   
    24     8    30 1   
    25     8    31 1   
    26     9    21 2   
    27    10    32 1   
    28    10    33 1   
    29    10    34 1   
    30    11    35 1   
    31    11    36 1   
    32    11    37 1   
    33    12    13 1   
    34    12    38 1   
    35    13    14 1   
    36    13    20 2   
    37    14    15 2   
    38    14    39 1   
    39    15    16 1   
    40    16    17 1   
    41    16    40 1   
    42    16    41 1   
    43    17    18 1   
    44    17    42 1   
    45    17    43 1   
    46    18    19 1   
    47    18    44 1   
    48    19    45 1   
@<TRIPOS>SUBSTRUCTURE
     1 ANB         1 TEMP              0 ****  ****    0 ROOT
