@<TRIPOS>MOLECULE
ANC
   26    28     1     0     0
SMALL
bcc


@<TRIPOS>ATOM
      1 C1          -1.0350     0.0050     0.9070 ca         1 ANC      -0.004000
      2 C2          -1.8790     0.0250     2.0520 ca         1 ANC      -0.164000
      3 C3           0.3900     0.0250     1.0730 ca         1 ANC      -0.056000
      4 C4          -1.3260     0.0590     3.2950 ca         1 ANC      -0.079000
      5 C5           0.9370     0.0350     2.4080 ca         1 ANC       0.159600
      6 C6           0.0760     0.0550     3.4780 ca         1 ANC      -0.223000
      7 C7           0.9410     0.0020    -3.7520 ca         1 ANC      -0.128000
      8 C8          -0.4710    -0.0440    -3.9160 ca         1 ANC      -0.122000
      9 C9           1.4890     0.0330    -2.5060 ca         1 ANC      -0.114000
     10 C10         -1.2930    -0.0550    -2.8320 ca         1 ANC      -0.118000
     11 C11          0.6630     0.0180    -1.3470 ca         1 ANC      -0.044000
     12 C12         -0.7560    -0.0240    -1.5120 ca         1 ANC      -0.025000
     13 C13         -1.5670    -0.0250    -0.3810 ca         1 ANC      -0.117000
     14 C14          1.1990     0.0450    -0.0600 ca         1 ANC      -0.098000
     15 N1           2.3030     0.0850     2.5850 nv         1 ANC      -0.817200
     16 HC2         -2.9530     0.0160     1.9170 ha         1 ANC       0.133000
     17 HC4         -1.9630     0.0750     4.1710 ha         1 ANC       0.127000
     18 HC6          0.4770     0.0610     4.4850 ha         1 ANC       0.128000
     19 HC7          1.5780     0.0120    -4.6260 ha         1 ANC       0.130000
     20 HC8         -0.8880    -0.0680    -4.9150 ha         1 ANC       0.130000
     21 HC9          2.5650     0.0650    -2.3800 ha         1 ANC       0.129000
     22 H10C        -2.3690    -0.0870    -2.9550 ha         1 ANC       0.131000
     23 H13C        -2.6440    -0.0450    -0.5020 ha         1 ANC       0.132000
     24 H14C         2.2770     0.0920     0.0320 ha         1 ANC       0.129000
     25 H1N          2.6100    -0.1050     3.5260 hn         1 ANC       0.390800
     26 H2N          2.8640    -0.4210     1.9190 hn         1 ANC       0.390800
@<TRIPOS>BOND
     1     1     2 ar  
     2     1     3 ar  
     3     1    13 ar  
     4     2     4 ar  
     5     2    16 1   
     6     3     5 ar  
     7     3    14 ar  
     8     4     6 ar  
     9     4    17 1   
    10     5     6 ar  
    11     5    15 1   
    12     6    18 1   
    13     7     8 ar  
    14     7     9 ar  
    15     7    19 1   
    16     8    10 ar  
    17     8    20 1   
    18     9    11 ar  
    19     9    21 1   
    20    10    12 ar  
    21    10    22 1   
    22    11    12 ar  
    23    11    14 ar  
    24    12    13 ar  
    25    13    23 1   
    26    14    24 1   
    27    15    25 1   
    28    15    26 1   
@<TRIPOS>SUBSTRUCTURE
     1 ANC         1 TEMP              0 ****  ****    0 ROOT
