@<TRIPOS>MOLECULE
ANC
   26    28     1     0     0
SMALL
No Charge or Current Charge


@<TRIPOS>ATOM
      1 C1          -1.0160     0.0080     0.9060 ca         1 ANC      -0.004000
      2 C2          -1.8660     0.0150     2.0270 ca         1 ANC      -0.146000
      3 C3           0.3900     0.0150     1.0780 ca         1 ANC      -0.056000
      4 C4          -1.3280     0.0300     3.3210 ca         1 ANC      -0.061000
      5 C5           0.9270     0.0280     2.3930 ca         1 ANC       0.298000
      6 C6           0.0640     0.0370     3.5000 ca         1 ANC      -0.205000
      7 C7           0.9260    -0.0200    -3.7850 ca         1 ANC      -0.110000
      8 C8          -0.4700    -0.0300    -3.9420 ca         1 ANC      -0.104000
      9 C9           1.4890    -0.0060    -2.4970 ca         1 ANC      -0.096000
     10 C10         -1.3050    -0.0250    -2.8110 ca         1 ANC      -0.100000
     11 C11          0.6570    -0.0020    -1.3610 ca         1 ANC      -0.044000
     12 C12         -0.7450    -0.0110    -1.5190 ca         1 ANC      -0.025000
     13 C13         -1.5750    -0.0060    -0.3860 ca         1 ANC      -0.099000
     14 C14          1.2190     0.0120    -0.0700 ca         1 ANC      -0.080000
     15 N1           2.2790     0.0310     2.6430 nv         1 ANC      -1.066000
     16 HC2         -2.9460     0.0090     1.8960 ha         1 ANC       0.115000
     17 HC4         -1.9890     0.0360     4.1860 ha         1 ANC       0.109000
     18 HC6          0.4700     0.0480     4.5080 ha         1 ANC       0.110000
     19 HC7          1.5710    -0.0230    -4.6600 ha         1 ANC       0.112000
     20 HC8         -0.9060    -0.0400    -4.9390 ha         1 ANC       0.112000
     21 HC9          2.5710     0.0010    -2.3850 ha         1 ANC       0.111000
     22 H10C        -2.3850    -0.0320    -2.9400 ha         1 ANC       0.113000
     23 H13C        -2.6560    -0.0120    -0.5080 ha         1 ANC       0.114000
     24 H14C         2.3010     0.0210     0.0270 ha         1 ANC       0.111000
     25 H1N          2.6130    -0.1030     3.5950 hn         1 ANC       0.446000
     26 H2N          2.9360    -0.1450     1.8880 hn         1 ANC       0.446000
@<TRIPOS>BOND
     1     1     2 ar  
     2     1     3 ar  
     3     1    13 ar  
     4     2     4 ar  
     5     2    16 1   
     6     3     5 ar  
     7     3    14 ar  
     8     4     6 ar  
     9     4    17 1   
    10     5     6 ar  
    11     5    15 1   
    12     6    18 1   
    13     7     8 ar  
    14     7     9 ar  
    15     7    19 1   
    16     8    10 ar  
    17     8    20 1   
    18     9    11 ar  
    19     9    21 1   
    20    10    12 ar  
    21    10    22 1   
    22    11    12 ar  
    23    11    14 ar  
    24    12    13 ar  
    25    13    23 1   
    26    14    24 1   
    27    15    25 1   
    28    15    26 1   
@<TRIPOS>SUBSTRUCTURE
     1 ANC         1 TEMP              0 ****  ****    0 ROOT
