@<TRIPOS>MOLECULE
AND
   49    52     1     0     0
SMALL
No Charge or Current Charge


@<TRIPOS>ATOM
      1 C1           1.4660    -0.6010    -2.4540 c6         1 AND      -0.067400
      2 C2           1.3950    -0.3750    -3.9830 c6         1 AND      -0.072400
      3 C3          -0.0260    -0.6620    -4.5110 c6         1 AND       0.173300
      4 O3          -0.0750    -0.4430    -5.9250 oh         1 AND      -0.660000
      5 C4          -1.0520     0.2420    -3.7940 c6         1 AND      -0.074200
      6 C5          -0.9770     0.1160    -2.2680 c2         1 AND      -0.105400
      7 C6          -2.1010    -0.0580    -1.5490 c2         1 AND      -0.218200
      8 C7          -2.1530    -0.1740    -0.0360 c6         1 AND      -0.037200
      9 C8          -0.8320     0.2460     0.6600 c6         1 AND      -0.040700
     10 C9           0.4030    -0.3020    -0.1390 c6         1 AND      -0.046700
     11 C10          0.4280     0.2420    -1.6300 c6         1 AND       0.002200
     12 C11          1.7550    -0.0860     0.6400 c6         1 AND      -0.073400
     13 C12          1.7060    -0.5740     2.1180 c6         1 AND      -0.050400
     14 C13          0.5120     0.0650     2.8870 c5         1 AND      -0.152000
     15 C14         -0.7950    -0.2880     2.1200 c5         1 AND      -0.062700
     16 C15         -1.9210     0.1400     3.1110 c5         1 AND      -0.068400
     17 C16         -1.2910    -0.1990     4.5060 c5         1 AND      -0.191400
     18 C17          0.1780    -0.5870     4.2450 c          1 AND       0.579100
     19 O17          0.8060    -1.4670     4.8210 o          1 AND      -0.512100
     20 C18          0.7870     1.5950     3.0970 c3         1 AND      -0.078100
     21 C19          0.8100     1.7630    -1.6880 c3         1 AND      -0.080100
     22 H11          1.3080    -1.6710    -2.2590 hc         1 AND       0.042700
     23 H12          2.4890    -0.3830    -2.1190 hc         1 AND       0.042700
     24 H21          2.1140    -1.0380    -4.4830 hc         1 AND       0.053700
     25 H22          1.6950     0.6510    -4.2340 hc         1 AND       0.053700
     26 H3          -0.2720    -1.7120    -4.2900 h1         1 AND       0.030700
     27 HO3         -0.9780    -0.6990    -6.2160 ho         1 AND       0.441000
     28 H41         -2.0630    -0.0040    -4.1460 hc         1 AND       0.050200
     29 H42         -0.8830     1.2880    -4.0810 hc         1 AND       0.050200
     30 H6          -3.0690    -0.1250    -2.0480 ha         1 AND       0.169000
     31 H71         -2.4010    -1.2140     0.2160 hc         1 AND       0.046700
     32 H72         -2.9780     0.4400     0.3480 hc         1 AND       0.046700
     33 H8          -0.7940     1.3420     0.6880 hc         1 AND       0.056700
     34 H9           0.2600    -1.3900    -0.2000 hc         1 AND       0.046700
     35 H111         2.0480     0.9700     0.6290 hc         1 AND       0.042200
     36 H112         2.5690    -0.6230     0.1360 hc         1 AND       0.042200
     37 H121         2.6550    -0.3470     2.6230 hc         1 AND       0.050700
     38 H122         1.6100    -1.6690     2.1270 hc         1 AND       0.050700
     39 H14         -0.8520    -1.3790     2.0050 hc         1 AND       0.047700
     40 H151        -2.1530     1.2080     3.0220 hc         1 AND       0.049200
     41 H152        -2.8550    -0.4070     2.9340 hc         1 AND       0.049200
     42 H161        -1.2960     0.7100     5.1170 hc         1 AND       0.072200
     43 H162        -1.8030    -0.9930     5.0610 hc         1 AND       0.072200
     44 H181         0.8790     2.1390     2.1510 hc         1 AND       0.040700
     45 H182        -0.0050     2.0960     3.6650 hc         1 AND       0.040700
     46 H183         1.7200     1.7490     3.6530 hc         1 AND       0.040700
     47 H191         0.7510     2.1650    -2.7040 hc         1 AND       0.035367
     48 H192         0.1450     2.3770    -1.0720 hc         1 AND       0.035367
     49 H193         1.8370     1.9430    -1.3520 hc         1 AND       0.035367
@<TRIPOS>BOND
     1     1     2 1   
     2     1    11 1   
     3     1    22 1   
     4     1    23 1   
     5     2     3 1   
     6     2    24 1   
     7     2    25 1   
     8     3     4 1   
     9     3     5 1   
    10     3    26 1   
    11     4    27 1   
    12     5     6 1   
    13     5    28 1   
    14     5    29 1   
    15     6     7 2   
    16     6    11 1   
    17     7     8 1   
    18     7    30 1   
    19     8     9 1   
    20     8    31 1   
    21     8    32 1   
    22     9    10 1   
    23     9    15 1   
    24     9    33 1   
    25    10    11 1   
    26    10    12 1   
    27    10    34 1   
    28    11    21 1   
    29    12    13 1   
    30    12    35 1   
    31    12    36 1   
    32    13    14 1   
    33    13    37 1   
    34    13    38 1   
    35    14    15 1   
    36    14    18 1   
    37    14    20 1   
    38    15    16 1   
    39    15    39 1   
    40    16    17 1   
    41    16    40 1   
    42    16    41 1   
    43    17    18 1   
    44    17    42 1   
    45    17    43 1   
    46    18    19 2   
    47    20    44 1   
    48    20    45 1   
    49    20    46 1   
    50    21    47 1   
    51    21    48 1   
    52    21    49 1   
@<TRIPOS>SUBSTRUCTURE
     1 AND         1 TEMP              0 ****  ****    0 ROOT
