@<TRIPOS>MOLECULE
AND
   49    52     1     0     0
SMALL
abcg2


@<TRIPOS>ATOM
      1 C1           1.3720    -0.6700    -2.4040 c6         1 AND      -0.067400
      2 C2           1.3380    -0.4270    -3.9080 c6         1 AND      -0.072400
      3 C3          -0.0680    -0.6100    -4.4440 c6         1 AND       0.173300
      4 O3          -0.0530    -0.3750    -5.8380 oh         1 AND      -0.660000
      5 C4          -1.0220     0.3330    -3.7160 c6         1 AND      -0.074200
      6 C5          -0.9580     0.1600    -2.2210 c2         1 AND      -0.105400
      7 C6          -2.0710    -0.0350    -1.5160 c2         1 AND      -0.218200
      8 C7          -2.1270    -0.1650    -0.0300 c6         1 AND      -0.037200
      9 C8          -0.8310     0.2620     0.6490 c6         1 AND      -0.040700
     10 C9           0.3750    -0.2950    -0.1290 c6         1 AND      -0.046700
     11 C10          0.4220     0.2320    -1.5870 c6         1 AND       0.002200
     12 C11          1.7040    -0.0930     0.6160 c6         1 AND      -0.073400
     13 C12          1.6850    -0.5610     2.0740 c6         1 AND      -0.050400
     14 C13          0.5200     0.0860     2.8060 c5         1 AND      -0.152000
     15 C14         -0.7810    -0.2540     2.0750 c5         1 AND      -0.062700
     16 C15         -1.8800     0.1270     3.0670 c5         1 AND      -0.068400
     17 C16         -1.2990    -0.3530     4.4050 c5         1 AND      -0.191400
     18 C17          0.2080    -0.4280     4.1950 c          1 AND       0.579100
     19 O17          1.0090    -0.8290     5.0060 o          1 AND      -0.512100
     20 C18          0.7420     1.5990     2.9860 c3         1 AND      -0.078100
     21 C19          0.9060     1.6890    -1.6540 c3         1 AND      -0.080100
     22 H11          1.1070    -1.7160    -2.2130 hc         1 AND       0.042700
     23 H12          2.3970    -0.5440    -2.0480 hc         1 AND       0.042700
     24 H21          2.0230    -1.1230    -4.4010 hc         1 AND       0.053700
     25 H22          1.6910     0.5820    -4.1440 hc         1 AND       0.053700
     26 H3          -0.3840    -1.6450    -4.2350 h1         1 AND       0.030700
     27 HO3         -0.9340    -0.5560    -6.1810 ho         1 AND       0.441000
     28 H41         -2.0480     0.1740    -4.0600 hc         1 AND       0.050200
     29 H42         -0.7540     1.3610    -3.9910 hc         1 AND       0.050200
     30 H6          -3.0180    -0.0990    -2.0450 ha         1 AND       0.169000
     31 H71         -2.3570    -1.2050     0.2370 hc         1 AND       0.046700
     32 H72         -2.9660     0.4220     0.3560 hc         1 AND       0.046700
     33 H8          -0.7860     1.3580     0.6530 hc         1 AND       0.056700
     34 H9           0.2070    -1.3800    -0.2000 hc         1 AND       0.046700
     35 H111         1.9850     0.9620     0.5900 hc         1 AND       0.042200
     36 H112         2.5010    -0.6210     0.0890 hc         1 AND       0.042200
     37 H121         2.6390    -0.3170     2.5480 hc         1 AND       0.050700
     38 H122         1.5800    -1.6500     2.1150 hc         1 AND       0.050700
     39 H14         -0.8060    -1.3540     2.0010 hc         1 AND       0.047700
     40 H151        -2.0520     1.2050     3.0720 hc         1 AND       0.049200
     41 H152        -2.8340    -0.3480     2.8370 hc         1 AND       0.049200
     42 H161        -1.5390     0.2880     5.2560 hc         1 AND       0.072200
     43 H162        -1.6570    -1.3540     4.6590 hc         1 AND       0.072200
     44 H181         0.8270     2.1140     2.0300 hc         1 AND       0.040700
     45 H182        -0.0640     2.0830     3.5380 hc         1 AND       0.040700
     46 H183         1.6670     1.7750     3.5360 hc         1 AND       0.040700
     47 H191         0.7980     2.0950    -2.6600 hc         1 AND       0.035367
     48 H192         0.3290     2.3320    -0.9860 hc         1 AND       0.035367
     49 H193         1.9590     1.7830    -1.3870 hc         1 AND       0.035367
@<TRIPOS>BOND
     1     1     2 1   
     2     1    11 1   
     3     1    22 1   
     4     1    23 1   
     5     2     3 1   
     6     2    24 1   
     7     2    25 1   
     8     3     4 1   
     9     3     5 1   
    10     3    26 1   
    11     4    27 1   
    12     5     6 1   
    13     5    28 1   
    14     5    29 1   
    15     6     7 2   
    16     6    11 1   
    17     7     8 1   
    18     7    30 1   
    19     8     9 1   
    20     8    31 1   
    21     8    32 1   
    22     9    10 1   
    23     9    15 1   
    24     9    33 1   
    25    10    11 1   
    26    10    12 1   
    27    10    34 1   
    28    11    21 1   
    29    12    13 1   
    30    12    35 1   
    31    12    36 1   
    32    13    14 1   
    33    13    37 1   
    34    13    38 1   
    35    14    15 1   
    36    14    18 1   
    37    14    20 1   
    38    15    16 1   
    39    15    39 1   
    40    16    17 1   
    41    16    40 1   
    42    16    41 1   
    43    17    18 1   
    44    17    42 1   
    45    17    43 1   
    46    18    19 2   
    47    20    44 1   
    48    20    45 1   
    49    20    46 1   
    50    21    47 1   
    51    21    48 1   
    52    21    49 1   
@<TRIPOS>SUBSTRUCTURE
     1 AND         1 TEMP              0 ****  ****    0 ROOT
