@<TRIPOS>MOLECULE
ANE
   15    16     1     0     0
SMALL
abcg2


@<TRIPOS>ATOM
      1 N9          -0.6540    -0.0410    -2.0390 na         1 ANE      -0.413300
      2 C8           0.6750    -0.0280    -2.3340 cc         1 ANE       0.398700
      3 N7           1.4350    -0.0040    -1.2780 nd         1 ANE      -0.551100
      4 C5           0.5520    -0.0000    -0.2290 ca         1 ANE      -0.104600
      5 C6           0.7280     0.0200     1.1670 ca         1 ANE       0.452900
      6 N6           1.9310     0.0480     1.7420 nv         1 ANE      -1.064900
      7 N1          -0.3660     0.0150     1.9380 nb         1 ANE      -0.303000
      8 C2          -1.5650    -0.0080     1.3600 ca         1 ANE       0.184900
      9 N3          -1.8590    -0.0280     0.0720 nb         1 ANE      -0.221000
     10 C4          -0.7600    -0.0240    -0.6830 ca         1 ANE       0.125500
     11 HN9         -1.4120    -0.0610    -2.7050 hn         1 ANE       0.369000
     12 H8           1.0230    -0.0380    -3.3560 h5         1 ANE       0.065800
     13 HN61         2.0150     0.0340     2.7440 hn         1 ANE       0.507000
     14 HN62         2.7720     0.0210     1.1930 hn         1 ANE       0.507000
     15 H2          -2.4080    -0.0100     2.0420 h5         1 ANE       0.046100
@<TRIPOS>BOND
     1     1     2 1   
     2     1    10 1   
     3     1    11 1   
     4     2     3 2   
     5     2    12 1   
     6     3     4 1   
     7     4     5 ar  
     8     4    10 ar  
     9     5     6 1   
    10     5     7 ar  
    11     6    13 1   
    12     6    14 1   
    13     7     8 ar  
    14     8     9 ar  
    15     8    15 1   
    16     9    10 ar  
@<TRIPOS>SUBSTRUCTURE
     1 ANE         1 TEMP              0 ****  ****    0 ROOT
