@<TRIPOS>MOLECULE
ANF
   25    27     1     0     0
SMALL
No Charge or Current Charge


@<TRIPOS>ATOM
      1 C1           1.1330    -0.0770    -2.5150 ca         1 ANF      -0.083500
      2 C2           0.3930    -0.0420    -3.7100 ca         1 ANF      -0.121000
      3 C3          -1.0080     0.0160    -3.6710 ca         1 ANF      -0.094000
      4 C4          -1.6720     0.0390    -2.4340 ca         1 ANF      -0.109500
      5 C5          -1.6070     0.0170     2.4220 ca         1 ANF      -0.109500
      6 C6          -0.9160    -0.0160     3.6420 ca         1 ANF      -0.094000
      7 C7           0.4860    -0.0750     3.6480 ca         1 ANF      -0.121000
      8 C8           1.1990    -0.0990     2.4370 ca         1 ANF      -0.083500
      9 C9           1.2010    -0.0900    -0.0450 ca         1 ANF       0.175100
     10 O9           2.5700    -0.1470    -0.0800 oh         1 ANF      -0.533100
     11 C10         -1.6150     0.0270    -0.0040 ca         1 ANF      -0.138000
     12 C11         -0.9010    -0.0070     1.2040 ca         1 ANF       0.007000
     13 C12          0.5130    -0.0660     1.1970 ca         1 ANF      -0.097500
     14 C13          0.4750    -0.0550    -1.2620 ca         1 ANF      -0.097500
     15 C14         -0.9370     0.0040    -1.2330 ca         1 ANF       0.007000
     16 H1           2.2180    -0.1220    -2.5750 ha         1 ANF       0.112000
     17 H2           0.9090    -0.0590    -4.6680 ha         1 ANF       0.113000
     18 H3          -1.5790     0.0440    -4.5960 ha         1 ANF       0.113000
     19 H4          -2.7580     0.0840    -2.4100 ha         1 ANF       0.113500
     20 H5          -2.6940     0.0620     2.4250 ha         1 ANF       0.113500
     21 H6          -1.4650     0.0030     4.5810 ha         1 ANF       0.113000
     22 H7           1.0220    -0.1010     4.5940 ha         1 ANF       0.113000
     23 H8           2.2830    -0.1450     2.4880 ha         1 ANF       0.112000
     24 H9           2.9040    -0.1640     0.8390 ho         1 ANF       0.472000
     25 H10         -2.7010     0.0720     0.0110 ha         1 ANF       0.118000
@<TRIPOS>BOND
     1     1     2 ar  
     2     1    14 ar  
     3     1    16 1   
     4     2     3 ar  
     5     2    17 1   
     6     3     4 ar  
     7     3    18 1   
     8     4    15 ar  
     9     4    19 1   
    10     5     6 ar  
    11     5    12 ar  
    12     5    20 1   
    13     6     7 ar  
    14     6    21 1   
    15     7     8 ar  
    16     7    22 1   
    17     8    13 ar  
    18     8    23 1   
    19     9    10 1   
    20     9    13 ar  
    21     9    14 ar  
    22    10    24 1   
    23    11    12 ar  
    24    11    15 ar  
    25    11    25 1   
    26    12    13 ar  
    27    14    15 ar  
@<TRIPOS>SUBSTRUCTURE
     1 ANF         1 TEMP              0 ****  ****    0 ROOT
