@<TRIPOS>MOLECULE
ANF
   25    27     1     0     0
SMALL
bcc


@<TRIPOS>ATOM
      1 C1           1.1330    -0.0760    -2.5090 ca         1 ANF      -0.101500
      2 C2           0.4200    -0.0420    -3.6700 ca         1 ANF      -0.139000
      3 C3          -0.9980     0.0180    -3.6440 ca         1 ANF      -0.112000
      4 C4          -1.6620     0.0400    -2.4560 ca         1 ANF      -0.127500
      5 C5          -1.6050     0.0150     2.4520 ca         1 ANF      -0.127500
      6 C6          -0.9220    -0.0160     3.6270 ca         1 ANF      -0.112000
      7 C7           0.4960    -0.0710     3.6250 ca         1 ANF      -0.139000
      8 C8           1.1850    -0.0940     2.4510 ca         1 ANF      -0.101500
      9 C9           1.1790    -0.0880    -0.0360 ca         1 ANF       0.175100
     10 O9           2.5160    -0.1440    -0.1340 oh         1 ANF      -0.494100
     11 C10         -1.6280     0.0260     0.0000 ca         1 ANF      -0.156000
     12 C11         -0.9250    -0.0070     1.1990 ca         1 ANF       0.007000
     13 C12          0.5060    -0.0650     1.1970 ca         1 ANF      -0.097500
     14 C13          0.4710    -0.0530    -1.2480 ca         1 ANF      -0.097500
     15 C14         -0.9570     0.0050    -1.2190 ca         1 ANF       0.007000
     16 H1           2.2120    -0.1200    -2.5500 ha         1 ANF       0.130000
     17 H2           0.9360    -0.0610    -4.6210 ha         1 ANF       0.131000
     18 H3          -1.5480     0.0450    -4.5750 ha         1 ANF       0.131000
     19 H4          -2.7440     0.0840    -2.4320 ha         1 ANF       0.131500
     20 H5          -2.6880     0.0560     2.4480 ha         1 ANF       0.131500
     21 H6          -1.4550     0.0020     4.5680 ha         1 ANF       0.131000
     22 H7           1.0330    -0.0940     4.5640 ha         1 ANF       0.131000
     23 H8           2.2660    -0.1320     2.5060 ha         1 ANF       0.130000
     24 H9           2.9430    -0.1920     0.7280 ho         1 ANF       0.433000
     25 H10         -2.7110     0.0680     0.0160 ha         1 ANF       0.136000
@<TRIPOS>BOND
     1     1     2 ar  
     2     1    14 ar  
     3     1    16 1   
     4     2     3 ar  
     5     2    17 1   
     6     3     4 ar  
     7     3    18 1   
     8     4    15 ar  
     9     4    19 1   
    10     5     6 ar  
    11     5    12 ar  
    12     5    20 1   
    13     6     7 ar  
    14     6    21 1   
    15     7     8 ar  
    16     7    22 1   
    17     8    13 ar  
    18     8    23 1   
    19     9    10 1   
    20     9    13 ar  
    21     9    14 ar  
    22    10    24 1   
    23    11    12 ar  
    24    11    15 ar  
    25    11    25 1   
    26    12    13 ar  
    27    14    15 ar  
@<TRIPOS>SUBSTRUCTURE
     1 ANF         1 TEMP              0 ****  ****    0 ROOT
