@<TRIPOS>MOLECULE
ANG
   18    19     1     0     0
SMALL
abcg2


@<TRIPOS>ATOM
      1 N9          20.4730    23.4980    33.5910 na         1 ANG      -0.341500
      2 C4          20.4180    23.8900    32.2780 cc         1 ANG       0.142400
      3 N3          20.4590    25.1560    31.8210 nc         1 ANG      -0.698100
      4 C2          20.3850    25.2400    30.5080 cd         1 ANG       0.714800
      5 N2          20.3550    26.4560    29.9060 nv         1 ANG      -1.031200
      6 N1          20.2880    24.1400    29.7040 ns         1 ANG      -0.452400
      7 C6          20.2430    22.7950    30.1360 c          1 ANG       0.514500
      8 O6          20.1530    21.8910    29.3000 o          1 ANG      -0.525000
      9 C5          20.3150    22.7130    31.5490 cd         1 ANG       0.118500
     10 N7          20.3010    21.6090    32.3990 nd         1 ANG      -0.652000
     11 C8          20.3990    22.1180    33.6050 cc         1 ANG       0.637400
     12 N8          20.5000    21.4130    34.7730 nv         1 ANG      -1.035900
     13 H9          20.5610    24.1040    34.3930 hn         1 ANG       0.364000
     14 H21         20.6280    27.2390    30.4780 hn         1 ANG       0.492000
     15 H22         20.5910    26.5240    28.9280 hn         1 ANG       0.492000
     16 H1          20.2310    24.2700    28.7020 hn         1 ANG       0.324500
     17 H81         20.1630    21.8780    35.6040 hn         1 ANG       0.467500
     18 H82         20.1870    20.4560    34.7010 hn         1 ANG       0.467500
@<TRIPOS>BOND
     1     1     2 1   
     2     1    11 1   
     3     1    13 1   
     4     2     3 1   
     5     2     9 2   
     6     3     4 2   
     7     4     5 1   
     8     4     6 1   
     9     5    14 1   
    10     5    15 1   
    11     6     7 1   
    12     6    16 1   
    13     7     8 2   
    14     7     9 1   
    15     9    10 1   
    16    10    11 2   
    17    11    12 1   
    18    12    17 1   
    19    12    18 1   
@<TRIPOS>SUBSTRUCTURE
     1 ANG         1 TEMP              0 ****  ****    0 ROOT
