@<TRIPOS>MOLECULE
ANG
   18    19     1     0     0
SMALL
No Charge or Current Charge


@<TRIPOS>ATOM
      1 N9          20.4700    23.5210    33.6130 na         1 ANG      -0.341500
      2 C4          20.4030    23.8960    32.3050 cc         1 ANG       0.142400
      3 N3          20.4150    25.1720    31.7940 nc         1 ANG      -0.698100
      4 C2          20.3380    25.1930    30.4830 cd         1 ANG       0.714800
      5 N2          20.3510    26.3940    29.9320 nv         1 ANG      -1.031200
      6 N1          20.2530    24.1320    29.6510 ns         1 ANG      -0.452400
      7 C6          20.2340    22.8340    30.0800 c          1 ANG       0.514500
      8 O6          20.1520    21.8940    29.3010 o          1 ANG      -0.525000
      9 C5          20.3210    22.7340    31.5680 cd         1 ANG       0.118500
     10 N7          20.3370    21.6320    32.4240 nd         1 ANG      -0.652000
     11 C8          20.4260    22.1660    33.6130 cc         1 ANG       0.637400
     12 N8          20.4690    21.4440    34.7300 nv         1 ANG      -1.035900
     13 H9          20.5470    24.1200    34.4180 hn         1 ANG       0.364000
     14 H21         20.6080    27.1320    30.5760 hn         1 ANG       0.492000
     15 H22         20.7380    26.4760    29.0000 hn         1 ANG       0.492000
     16 H1          20.1780    24.2780    28.6570 hn         1 ANG       0.324500
     17 H81         20.2040    21.9030    35.5950 hn         1 ANG       0.467500
     18 H82         20.2080    20.4690    34.6380 hn         1 ANG       0.467500
@<TRIPOS>BOND
     1     1     2 1   
     2     1    11 1   
     3     1    13 1   
     4     2     3 1   
     5     2     9 2   
     6     3     4 2   
     7     4     5 1   
     8     4     6 1   
     9     5    14 1   
    10     5    15 1   
    11     6     7 1   
    12     6    16 1   
    13     7     8 2   
    14     7     9 1   
    15     9    10 1   
    16    10    11 2   
    17    11    12 1   
    18    12    17 1   
    19    12    18 1   
@<TRIPOS>SUBSTRUCTURE
     1 ANG         1 TEMP              0 ****  ****    0 ROOT
