@<TRIPOS>MOLECULE
ANH
   54    55     1     0     0
SMALL
No Charge or Current Charge


@<TRIPOS>ATOM
      1 N12          1.4650    -0.6920     0.3880 ns         1 ANH      -0.486900
      2 C13          1.0360     0.2980     1.4040 c3         1 ANH       0.062700
      3 C30          0.2580    -0.3880     2.5570 c3         1 ANH      -0.040100
      4 C14          2.2440     1.1010     1.9610 c          1 ANH       0.579100
      5 O17          2.3290     2.3220     1.9090 o          1 ANH      -0.470000
      6 O15          3.1890     0.2870     2.5410 os         1 ANH      -0.441100
      7 C16          4.3630     0.9040     3.0990 c3         1 ANH       0.149900
      8 C21         -1.0530    -1.0410     2.1220 ca         1 ANH      -0.096300
      9 C22         -1.0630    -2.3450     1.5940 ca         1 ANH      -0.094000
     10 C23         -2.2730    -2.9370     1.2050 ca         1 ANH      -0.116000
     11 C24         -3.4850    -2.2450     1.3630 ca         1 ANH      -0.092000
     12 C25         -3.5060    -0.9480     1.9320 ca         1 ANH      -0.143900
     13 C26         -2.2720    -0.3530     2.2880 ca         1 ANH      -0.058000
     14 C27         -4.7900    -0.1900     2.1180 ce         1 ANH       0.659800
     15 N28         -5.9500    -0.8800     2.1120 nv         1 ANH      -1.074200
     16 N29         -4.8370     1.0480     2.3920 n2         1 ANH      -0.833100
     17 C11          2.2530    -0.4240    -0.7140 c          1 ANH       0.564100
     18 C10          2.5370    -1.6480    -1.6350 c3         1 ANH       0.109800
     19 N9           2.7950    -1.3280    -3.0770 n7         1 ANH      -0.836300
     20 O20          2.7090     0.6900    -0.9400 o          1 ANH      -0.594100
     21 C2          -1.6580     0.9870    -1.4170 ca         1 ANH      -0.007300
     22 C3          -0.6780     1.7690    -2.0520 ca         1 ANH      -0.133000
     23 C4           0.2920     1.1690    -2.8700 ca         1 ANH      -0.007500
     24 C5           0.2940    -0.2290    -3.0550 ca         1 ANH      -0.321500
     25 C6          -0.6890    -1.0170    -2.4210 ca         1 ANH      -0.007500
     26 C7          -1.6560    -0.4080    -1.6020 ca         1 ANH      -0.133000
     27 S8           1.5300    -0.9920    -4.1190 sy         1 ANH       1.142600
     28 O18          2.0750     0.0230    -5.0220 o          1 ANH      -0.536000
     29 O19          1.0650    -2.2920    -4.6070 o          1 ANH      -0.536000
     30 H12          1.1380    -1.6450     0.4900 hn         1 ANH       0.324500
     31 H13          0.3760     1.0280     0.9160 h1         1 ANH       0.108700
     32 H301         0.9050    -1.1360     3.0330 hc         1 ANH       0.067700
     33 H302         0.0560     0.3610     3.3330 hc         1 ANH       0.067700
     34 H161         5.0290     0.1420     3.5240 h1         1 ANH       0.050700
     35 H162         4.9210     1.4510     2.3290 h1         1 ANH       0.050700
     36 H163         4.0950     1.6050     3.9000 h1         1 ANH       0.050700
     37 H22         -0.1370    -2.9040     1.4860 ha         1 ANH       0.108000
     38 H23         -2.2730    -3.9390     0.7810 ha         1 ANH       0.122000
     39 H24         -4.4040    -2.7280     1.0390 ha         1 ANH       0.122000
     40 H26         -2.2600     0.6480     2.7130 ha         1 ANH       0.144000
     41 H281        -6.7040    -0.4740     2.6520 hn         1 ANH       0.463000
     42 H282        -5.8550    -1.8850     2.1980 hn         1 ANH       0.463000
     43 H29         -5.8030     1.3640     2.2590 hn         1 ANH       0.376400
     44 H101         3.4170    -2.1370    -1.1970 h1         1 ANH       0.087200
     45 H102         1.7070    -2.3610    -1.5340 h1         1 ANH       0.087200
     46 HN9          3.3260    -0.4570    -3.1370 hn         1 ANH       0.498000
     47 H11         -3.0830     2.5720    -1.0160 hc         1 ANH       0.055367
     48 H12A        -3.5740     0.9950    -0.3900 hc         1 ANH       0.055367
     49 H13A        -2.3010     1.9170     0.4310 hc         1 ANH       0.055367
     50 H4           1.0410     1.7950    -3.3530 ha         1 ANH       0.130000
     51 H6          -0.7100    -2.0970    -2.5590 ha         1 ANH       0.130000
     52 H7          -2.4090    -1.0230    -1.1170 ha         1 ANH       0.120000
     53 H3          -0.6690     2.8480    -1.9140 ha         1 ANH       0.120000
     54 C1          -2.7120     1.6520    -0.5500 c3         1 ANH      -0.066800
@<TRIPOS>BOND
     1     1     2 1   
     2     1    17 1   
     3     1    30 1   
     4     2     3 1   
     5     2     4 1   
     6     2    31 1   
     7     3     8 1   
     8     3    32 1   
     9     3    33 1   
    10     4     5 2   
    11     4     6 1   
    12     6     7 1   
    13     7    34 1   
    14     7    35 1   
    15     7    36 1   
    16     8     9 ar  
    17     8    13 ar  
    18     9    10 ar  
    19     9    37 1   
    20    10    11 ar  
    21    10    38 1   
    22    11    12 ar  
    23    11    39 1   
    24    12    13 ar  
    25    12    14 1   
    26    13    40 1   
    27    14    15 1   
    28    14    16 2   
    29    15    41 1   
    30    15    42 1   
    31    16    43 1   
    32    17    18 1   
    33    17    20 2   
    34    18    19 1   
    35    18    44 1   
    36    18    45 1   
    37    19    27 1   
    38    19    46 1   
    39    21    22 ar  
    40    21    26 ar  
    41    21    54 1   
    42    22    23 ar  
    43    22    53 1   
    44    23    24 ar  
    45    23    50 1   
    46    24    25 ar  
    47    24    27 1   
    48    25    26 ar  
    49    25    51 1   
    50    26    52 1   
    51    27    28 2   
    52    27    29 2   
    53    47    54 1   
    54    48    54 1   
    55    49    54 1   
@<TRIPOS>SUBSTRUCTURE
     1 ANH         1 TEMP              0 ****  ****    0 ROOT
