@<TRIPOS>MOLECULE
ANH
   54    55     1     0     0
SMALL
abcg2


@<TRIPOS>ATOM
      1 N12          1.5550    -0.8290     0.5500 ns         1 ANH      -0.486900
      2 C13          1.0590     0.0530     1.5730 c3         1 ANH       0.062700
      3 C30          0.3200    -0.7460     2.6580 c3         1 ANH      -0.040100
      4 C14          2.1650     0.8750     2.2200 c          1 ANH       0.579100
      5 O17          1.9820     1.9790     2.6670 o          1 ANH      -0.470000
      6 O15          3.3080     0.2210     2.2870 os         1 ANH      -0.441100
      7 C16          4.4120     0.8820     2.9070 c3         1 ANH       0.149900
      8 C21         -1.0000    -1.2820     2.1750 ca         1 ANH      -0.096300
      9 C22         -1.1040    -2.5370     1.5800 ca         1 ANH      -0.094000
     10 C23         -2.3290    -2.9950     1.1170 ca         1 ANH      -0.116000
     11 C24         -3.4680    -2.2160     1.2610 ca         1 ANH      -0.092000
     12 C25         -3.3880    -0.9680     1.8760 ca         1 ANH      -0.143900
     13 C26         -2.1480    -0.5110     2.3130 ca         1 ANH      -0.058000
     14 C27         -4.5880    -0.1060     2.0770 ce         1 ANH       0.659800
     15 N28         -5.7910    -0.7470     2.0050 nv         1 ANH      -1.074200
     16 N29         -4.4160     1.1480     2.2530 n2         1 ANH      -0.833100
     17 C11          2.1660    -0.3400    -0.5380 c          1 ANH       0.564100
     18 C10          2.7570    -1.3760    -1.4830 c3         1 ANH       0.109800
     19 N9           2.8250    -0.9150    -2.8540 n7         1 ANH      -0.836300
     20 O20          2.2880     0.8560    -0.7460 o          1 ANH      -0.594100
     21 C2          -1.8330     1.1380    -1.6250 ca         1 ANH      -0.007300
     22 C3          -1.0090     1.7970    -2.5360 ca         1 ANH      -0.133000
     23 C4          -0.0120     1.1240    -3.2200 ca         1 ANH      -0.007500
     24 C5           0.1590    -0.2350    -2.9990 ca         1 ANH      -0.321500
     25 C6          -0.6500    -0.9190    -2.1000 ca         1 ANH      -0.007500
     26 C7          -1.6350    -0.2260    -1.4180 ca         1 ANH      -0.133000
     27 S8           1.4800    -1.0850    -3.8050 sy         1 ANH       1.142600
     28 O18          1.7930    -0.3990    -5.0480 o          1 ANH      -0.536000
     29 O19          1.1580    -2.5020    -3.8140 o          1 ANH      -0.536000
     30 H12          1.5380    -1.8240     0.7080 hn         1 ANH       0.324500
     31 H13          0.3620     0.7680     1.1280 h1         1 ANH       0.108700
     32 H301         0.9610    -1.5580     3.0100 hc         1 ANH       0.067700
     33 H302         0.1490    -0.0870     3.5100 hc         1 ANH       0.067700
     34 H161         5.2410     0.1820     2.8630 h1         1 ANH       0.050700
     35 H162         4.6780     1.7920     2.3700 h1         1 ANH       0.050700
     36 H163         4.1970     1.1250     3.9470 h1         1 ANH       0.050700
     37 H22         -0.2310    -3.1720     1.4910 ha         1 ANH       0.108000
     38 H23         -2.3980    -3.9650     0.6430 ha         1 ANH       0.122000
     39 H24         -4.4090    -2.5890     0.8780 ha         1 ANH       0.122000
     40 H26         -2.0880     0.4630     2.7840 ha         1 ANH       0.144000
     41 H281        -6.6070    -0.2230     2.2800 hn         1 ANH       0.463000
     42 H282        -5.8360    -1.7190     2.2610 hn         1 ANH       0.463000
     43 H29         -5.3010     1.6240     2.4070 hn         1 ANH       0.376400
     44 H101         3.7770    -1.5820    -1.1490 h1         1 ANH       0.087200
     45 H102         2.2280    -2.3280    -1.4390 h1         1 ANH       0.087200
     46 HN9          3.2350     0.0100    -2.9450 hn         1 ANH       0.498000
     47 H11         -2.8720     2.9380    -1.0660 hc         1 ANH       0.055367
     48 H12A        -3.9030     1.5200    -1.2390 hc         1 ANH       0.055367
     49 H13A        -2.8910     1.6770     0.1740 hc         1 ANH       0.055367
     50 H4           0.6170     1.6610    -3.9180 ha         1 ANH       0.130000
     51 H6          -0.5270    -1.9800    -1.9300 ha         1 ANH       0.130000
     52 H7          -2.2610    -0.7600    -0.7140 ha         1 ANH       0.120000
     53 H3          -1.1500     2.8560    -2.7160 ha         1 ANH       0.120000
     54 C1          -2.9240     1.8630    -0.9000 c3         1 ANH      -0.066800
@<TRIPOS>BOND
     1     1     2 1   
     2     1    17 1   
     3     1    30 1   
     4     2     3 1   
     5     2     4 1   
     6     2    31 1   
     7     3     8 1   
     8     3    32 1   
     9     3    33 1   
    10     4     5 2   
    11     4     6 1   
    12     6     7 1   
    13     7    34 1   
    14     7    35 1   
    15     7    36 1   
    16     8     9 ar  
    17     8    13 ar  
    18     9    10 ar  
    19     9    37 1   
    20    10    11 ar  
    21    10    38 1   
    22    11    12 ar  
    23    11    39 1   
    24    12    13 ar  
    25    12    14 1   
    26    13    40 1   
    27    14    15 1   
    28    14    16 2   
    29    15    41 1   
    30    15    42 1   
    31    16    43 1   
    32    17    18 1   
    33    17    20 2   
    34    18    19 1   
    35    18    44 1   
    36    18    45 1   
    37    19    27 1   
    38    19    46 1   
    39    21    22 ar  
    40    21    26 ar  
    41    21    54 1   
    42    22    23 ar  
    43    22    53 1   
    44    23    24 ar  
    45    23    50 1   
    46    24    25 ar  
    47    24    27 1   
    48    25    26 ar  
    49    25    51 1   
    50    26    52 1   
    51    27    28 2   
    52    27    29 2   
    53    47    54 1   
    54    48    54 1   
    55    49    54 1   
@<TRIPOS>SUBSTRUCTURE
     1 ANH         1 TEMP              0 ****  ****    0 ROOT
