@<TRIPOS>MOLECULE
ANI
   17    17     1     0     0
SMALL
bcc


@<TRIPOS>ATOM
      1 N           36.3060    19.1200    37.7240 nv         1 ANI      -0.835200
      2 C1          35.9710    18.2000    38.6750 ca         1 ANI       0.199600
      3 C2          35.3590    18.5950    39.8760 ca         1 ANI      -0.216500
      4 C3          35.0760    17.6720    40.8610 ca         1 ANI      -0.029500
      5 C4          35.3900    16.3250    40.6890 ca         1 ANI      -0.256300
      6 C5          35.9840    15.9220    39.4980 ca         1 ANI      -0.029500
      7 C6          36.2710    16.8410    38.5070 ca         1 ANI      -0.216500
      8 C7          35.0570    15.3580    41.7690 c3         1 ANI       0.726200
      9 F1          35.5810    14.1440    41.5610 f          1 ANI      -0.239633
     10 F2          35.4980    15.7710    42.9700 f          1 ANI      -0.239633
     11 F3          33.7300    15.1830    41.9090 f          1 ANI      -0.239633
     12 HN1         36.4710    18.7820    36.7900 hn         1 ANI       0.408800
     13 HN2         35.8270    20.0050    37.7500 hn         1 ANI       0.408800
     14 H2          35.1090    19.6380    40.0310 ha         1 ANI       0.136000
     15 H3          34.6050    18.0180    41.7730 ha         1 ANI       0.143500
     16 H5          36.2330    14.8830    39.3250 ha         1 ANI       0.143500
     17 H6          36.7370    16.5050    37.5880 ha         1 ANI       0.136000
@<TRIPOS>BOND
     1     1     2 1   
     2     1    12 1   
     3     1    13 1   
     4     2     3 ar  
     5     2     7 ar  
     6     3     4 ar  
     7     3    14 1   
     8     4     5 ar  
     9     4    15 1   
    10     5     6 ar  
    11     5     8 1   
    12     6     7 ar  
    13     6    16 1   
    14     7    17 1   
    15     8     9 1   
    16     8    10 1   
    17     8    11 1   
@<TRIPOS>SUBSTRUCTURE
     1 ANI         1 TEMP              0 ****  ****    0 ROOT
