@<TRIPOS>MOLECULE
ANI
   17    17     1     0     0
SMALL
No Charge or Current Charge


@<TRIPOS>ATOM
      1 N           36.2480    19.1060    37.6850 nv         1 ANI      -1.084000
      2 C1          35.9650    18.2020    38.6700 ca         1 ANI       0.338000
      3 C2          35.4210    18.6370    39.8840 ca         1 ANI      -0.198500
      4 C3          35.1270    17.7110    40.8990 ca         1 ANI      -0.011500
      5 C4          35.3820    16.3360    40.7050 ca         1 ANI      -0.256300
      6 C5          35.9220    15.9070    39.4730 ca         1 ANI      -0.011500
      7 C6          36.2140    16.8410    38.4640 ca         1 ANI      -0.198500
      8 C7          35.0520    15.3210    41.8040 c3         1 ANI       0.362300
      9 F1          35.8700    14.2440    41.7730 f          1 ANI      -0.118333
     10 F2          35.1630    15.8520    43.0440 f          1 ANI      -0.118333
     11 F3          33.7880    14.8600    41.6830 f          1 ANI      -0.118333
     12 HN1         36.4760    18.7720    36.7510 hn         1 ANI       0.464000
     13 HN2         35.9080    20.0620    37.7680 hn         1 ANI       0.464000
     14 H2          35.2230    19.6920    40.0470 ha         1 ANI       0.118000
     15 H3          34.6970    18.0670    41.8340 ha         1 ANI       0.125500
     16 H5          36.1160    14.8510    39.2910 ha         1 ANI       0.125500
     17 H6          36.6320    16.4990    37.5220 ha         1 ANI       0.118000
@<TRIPOS>BOND
     1     1     2 1   
     2     1    12 1   
     3     1    13 1   
     4     2     3 ar  
     5     2     7 ar  
     6     3     4 ar  
     7     3    14 1   
     8     4     5 ar  
     9     4    15 1   
    10     5     6 ar  
    11     5     8 1   
    12     6     7 ar  
    13     6    16 1   
    14     7    17 1   
    15     8     9 1   
    16     8    10 1   
    17     8    11 1   
@<TRIPOS>SUBSTRUCTURE
     1 ANI         1 TEMP              0 ****  ****    0 ROOT
