@<TRIPOS>MOLECULE
ANK
   44    46     1     0     0
SMALL
bcc


@<TRIPOS>ATOM
      1 N1          -7.1550     2.0300     0.8450 nb         1 ANK      -0.865000
      2 C2          -7.1360     1.2260    -0.2160 ca         1 ANK       0.642900
      3 N3          -6.1120     0.5700    -0.7310 nb         1 ANK      -0.744000
      4 C4          -4.9870     0.7930    -0.0510 ca         1 ANK       0.403800
      5 C5          -4.8500     1.6090     1.0620 ca         1 ANK      -0.203200
      6 C6          -6.0190     2.2450     1.5180 ca         1 ANK       0.744200
      7 N6          -6.0350     3.0420     2.5880 nv         1 ANK      -0.977500
      8 N7          -3.5490     1.6360     1.4870 nc         1 ANK      -0.580100
      9 C8          -2.9160     0.8570     0.6560 cd         1 ANK       0.490700
     10 N9          -3.7380     0.2990    -0.2890 na         1 ANK      -0.285000
     11 PA           1.1440    -0.5470     0.9720 p5         1 ANK       1.453800
     12 PB           3.5550     0.8800     0.1170 p5         1 ANK       1.438700
     13 PG           6.3560     0.7600    -1.0270 p5         1 ANK       1.296800
     14 C1          -3.3540    -0.5580    -1.4130 c5         1 ANK       0.269800
     15 O1A          0.3180     0.7090     0.9880 o          1 ANK      -0.878500
     16 O1B          3.2130     1.8180    -1.0030 o          1 ANK      -0.889500
     17 O1G          6.0560     0.7710    -2.5230 o          1 ANK      -0.958833
     18 C7          -4.0870    -1.8960    -1.3720 c5         1 ANK       0.059100
     19 O2          -4.0730    -2.4190    -2.6720 oh         1 ANK      -0.589800
     20 O2A          1.4550    -1.2360     2.2670 o          1 ANK      -0.878500
     21 O2B          3.5150     1.3740     1.5400 o          1 ANK      -0.889500
     22 O2G          6.4980     2.1540    -0.4130 o          1 ANK      -0.958833
     23 C3          -3.1680    -2.6990    -0.4460 c5         1 ANK       0.053100
     24 O3          -3.2280    -4.0830    -0.6560 oh         1 ANK      -0.584800
     25 O3A          2.4560    -0.4010     0.0380 os         1 ANK      -0.689800
     26 N3B          4.9360     0.0110    -0.2600 n7         1 ANK      -0.906400
     27 O3G          7.4660    -0.2120    -0.6200 o          1 ANK      -0.958833
     28 C9          -1.7830    -2.1690    -0.8190 c5         1 ANK       0.122100
     29 O4          -1.9980    -0.8510    -1.3270 os         1 ANK      -0.324600
     30 C10         -0.8340    -2.1500     0.3580 c3         1 ANK       0.214400
     31 O5           0.4170    -1.6450    -0.0390 os         1 ANK      -0.512200
     32 H2          -8.0880     1.0960    -0.7190 h5         1 ANK       0.007100
     33 HN6         -6.8730     3.5370     2.8400 hn         1 ANK       0.435800
     34 HN6A        -5.1880     3.2570     3.0850 hn         1 ANK       0.435800
     35 H8          -1.8470     0.6730     0.6790 h5         1 ANK       0.189800
     36 H1          -3.5580    -0.0090    -2.3360 h2         1 ANK       0.099700
     37 H6          -5.1050    -1.8060    -0.9810 h1         1 ANK       0.054700
     38 HO2         -4.0340    -3.3810    -2.5990 ho         1 ANK       0.407000
     39 H3          -3.4000    -2.4440     0.5960 h1         1 ANK       0.056700
     40 HO3         -3.9690    -4.4400    -0.1570 ho         1 ANK       0.382000
     41 HN3B         5.2170    -0.6140     0.4850 hn         1 ANK       0.330800
     42 H4          -1.3580    -2.7810    -1.6240 h1         1 ANK       0.085700
     43 H5          -1.2850    -1.5670     1.1710 h1         1 ANK      -0.000800
     44 H5'A        -0.7350    -3.1780     0.7270 h1         1 ANK      -0.000800
@<TRIPOS>BOND
     1     1     2 ar  
     2     1     6 ar  
     3     2     3 ar  
     4     2    32 1   
     5     3     4 ar  
     6     4     5 ar  
     7     4    10 1   
     8     5     6 ar  
     9     5     8 1   
    10     6     7 1   
    11     7    33 1   
    12     7    34 1   
    13     8     9 2   
    14     9    10 1   
    15     9    35 1   
    16    10    14 1   
    17    11    15 1   
    18    11    20 1   
    19    11    25 1   
    20    11    31 1   
    21    12    16 1   
    22    12    21 1   
    23    12    25 1   
    24    12    26 1   
    25    13    17 1   
    26    13    22 1   
    27    13    26 1   
    28    13    27 1   
    29    14    18 1   
    30    14    29 1   
    31    14    36 1   
    32    18    19 1   
    33    18    23 1   
    34    18    37 1   
    35    19    38 1   
    36    23    24 1   
    37    23    28 1   
    38    23    39 1   
    39    24    40 1   
    40    26    41 1   
    41    28    29 1   
    42    28    30 1   
    43    28    42 1   
    44    30    31 1   
    45    30    43 1   
    46    30    44 1   
@<TRIPOS>SUBSTRUCTURE
     1 ANK         1 TEMP              0 ****  ****    0 ROOT
