@<TRIPOS>MOLECULE
ANK
   44    46     1     0     0
SMALL
No Charge or Current Charge


@<TRIPOS>ATOM
      1 N1          -6.0370     3.0990    -0.3680 nb         1 ANK      -0.339000
      2 C2          -5.7270     2.1780    -1.3100 ca         1 ANK       0.116900
      3 N3          -4.7120     1.2830    -1.2640 nb         1 ANK      -0.218000
      4 C4          -3.9360     1.3180    -0.1600 ca         1 ANK       0.075500
      5 C5          -4.1620     2.2210     0.8510 ca         1 ANK      -0.072600
      6 C6          -5.2490     3.1150     0.7170 ca         1 ANK       0.415900
      7 N6          -5.5570     4.0510     1.6550 nv         1 ANK      -1.087900
      8 N7          -3.2320     2.1140     1.8780 nc         1 ANK      -0.580100
      9 C8          -2.4350     1.1150     1.4360 cd         1 ANK       0.490700
     10 N9          -2.8440     0.5670     0.2040 na         1 ANK      -0.314300
     11 PA           1.5340    -2.3630     1.6280 p5         1 ANK       1.453800
     12 PB           2.0200     0.0030     0.5900 p5         1 ANK       1.438700
     13 PG           2.4020     1.7080    -1.5840 p5         1 ANK       1.296800
     14 C1          -2.1520    -0.4950    -0.5290 c5         1 ANK       0.322300
     15 O1A          0.8270    -1.7490     2.7930 o          1 ANK      -0.878500
     16 O1B          0.9110     0.8930     1.0410 o          1 ANK      -0.889500
     17 O1G          1.0090     1.9890    -2.0140 o          1 ANK      -0.958833
     18 C7          -3.0300    -1.5330    -1.3400 c5         1 ANK       0.082300
     19 O2          -2.6140    -1.6940    -2.7020 oh         1 ANK      -0.712000
     20 O2A          2.8830    -2.8810     2.0120 o          1 ANK      -0.878500
     21 O2B          3.3070     0.1440     1.3190 o          1 ANK      -0.889500
     22 O2G          2.9560     2.7400    -0.6760 o          1 ANK      -0.958833
     23 C3          -2.7350    -2.8710    -0.5960 c5         1 ANK       0.076300
     24 O3          -2.8740    -3.9980    -1.4860 oh         1 ANK      -0.707000
     25 O3A          1.5870    -1.4880     0.3130 os         1 ANK      -0.689800
     26 N3B          2.4850     0.2760    -0.9060 n7         1 ANK      -0.961600
     27 O3G          3.2820     1.5740    -2.7700 o          1 ANK      -0.958833
     28 C9          -1.2790    -2.6090    -0.1170 c5         1 ANK       0.145300
     29 O4          -1.4180    -1.2890     0.4250 os         1 ANK      -0.371000
     30 C10         -0.7600    -3.5990     0.9640 c3         1 ANK       0.237600
     31 O5           0.6760    -3.6020     1.0420 os         1 ANK      -0.535400
     32 H2          -6.3580     2.1550    -2.1970 h5         1 ANK       0.007100
     33 HN6         -6.1450     4.8310     1.3740 hn         1 ANK       0.491000
     34 HN6A        -4.8580     4.2370     2.3710 hn         1 ANK       0.491000
     35 H8          -1.5580     0.7330     1.9530 h5         1 ANK       0.189800
     36 H1          -1.4510     0.0080    -1.2070 h2         1 ANK       0.099700
     37 H6          -4.1010    -1.2970    -1.2910 h1         1 ANK       0.054700
     38 HO2         -2.6140    -2.6830    -2.7940 ho         1 ANK       0.506000
     39 H3          -3.4070    -2.9760     0.2690 h1         1 ANK       0.056700
     40 HO3         -3.0260    -4.8000    -0.9330 ho         1 ANK       0.481000
     41 HN3B         3.4140     0.3870    -0.5380 hn         1 ANK       0.386000
     42 H4          -0.5770    -2.5900    -0.9630 h1         1 ANK       0.085700
     43 H5          -1.2070    -3.3540     1.9370 h1         1 ANK      -0.000800
     44 H5'A        -1.0990    -4.6090     0.6990 h1         1 ANK      -0.000800
@<TRIPOS>BOND
     1     1     2 ar  
     2     1     6 ar  
     3     2     3 ar  
     4     2    32 1   
     5     3     4 ar  
     6     4     5 ar  
     7     4    10 1   
     8     5     6 ar  
     9     5     8 1   
    10     6     7 1   
    11     7    33 1   
    12     7    34 1   
    13     8     9 2   
    14     9    10 1   
    15     9    35 1   
    16    10    14 1   
    17    11    15 1   
    18    11    20 1   
    19    11    25 1   
    20    11    31 1   
    21    12    16 1   
    22    12    21 1   
    23    12    25 1   
    24    12    26 1   
    25    13    17 1   
    26    13    22 1   
    27    13    26 1   
    28    13    27 1   
    29    14    18 1   
    30    14    29 1   
    31    14    36 1   
    32    18    19 1   
    33    18    23 1   
    34    18    37 1   
    35    19    38 1   
    36    23    24 1   
    37    23    28 1   
    38    23    39 1   
    39    24    40 1   
    40    26    41 1   
    41    28    29 1   
    42    28    30 1   
    43    28    42 1   
    44    30    31 1   
    45    30    43 1   
    46    30    44 1   
@<TRIPOS>SUBSTRUCTURE
     1 ANK         1 TEMP              0 ****  ****    0 ROOT
