@<TRIPOS>MOLECULE
ANL
   14    14     1     0     0
SMALL
No Charge or Current Charge


@<TRIPOS>ATOM
      1 C1          -0.0090     0.0290     0.9270 ca         1 ANL       0.288000
      2 C2          -1.2240     0.0150     0.2260 ca         1 ANL      -0.178000
      3 C3          -1.2290     0.0020    -1.1810 ca         1 ANL      -0.071000
      4 C4          -0.0120     0.0030    -1.8840 ca         1 ANL      -0.156000
      5 C5           1.2060     0.0170    -1.1830 ca         1 ANL      -0.071000
      6 C6           1.2050     0.0300     0.2230 ca         1 ANL      -0.178000
      7 N           -0.0080     0.0410     2.2950 nv         1 ANL      -1.073000
      8 H2          -2.1680     0.0140     0.7650 ha         1 ANL       0.110000
      9 H3          -2.1720    -0.0090    -1.7230 ha         1 ANL       0.108000
     10 H4          -0.0130    -0.0070    -2.9720 ha         1 ANL       0.113000
     11 H5           2.1490     0.0180    -1.7270 ha         1 ANL       0.108000
     12 H6           2.1490     0.0420     0.7610 ha         1 ANL       0.110000
     13 HN1          0.8650    -0.0930     2.8020 hn         1 ANL       0.446000
     14 HN2         -0.8770    -0.1040     2.8050 hn         1 ANL       0.446000
@<TRIPOS>BOND
     1     1     2 ar  
     2     1     6 ar  
     3     1     7 1   
     4     2     3 ar  
     5     2     8 1   
     6     3     4 ar  
     7     3     9 1   
     8     4     5 ar  
     9     4    10 1   
    10     5     6 ar  
    11     5    11 1   
    12     6    12 1   
    13     7    13 1   
    14     7    14 1   
@<TRIPOS>SUBSTRUCTURE
     1 ANL         1 TEMP              0 ****  ****    0 ROOT
