@<TRIPOS>MOLECULE
ANL
   14    14     1     0     0
SMALL
abcg2


@<TRIPOS>ATOM
      1 C1          -0.0090     0.0620     0.9340 ca         1 ANL       0.288000
      2 C2          -1.2120     0.0350     0.2170 ca         1 ANL      -0.178000
      3 C3          -1.2070     0.0010    -1.1690 ca         1 ANL      -0.071000
      4 C4          -0.0120    -0.0080    -1.8790 ca         1 ANL      -0.156000
      5 C5           1.1850     0.0160    -1.1710 ca         1 ANL      -0.071000
      6 C6           1.1920     0.0500     0.2140 ca         1 ANL      -0.178000
      7 N           -0.0080     0.1500     2.3110 nv         1 ANL      -1.073000
      8 H2          -2.1540     0.0400     0.7530 ha         1 ANL       0.110000
      9 H3          -2.1510    -0.0220    -1.6990 ha         1 ANL       0.108000
     10 H4          -0.0120    -0.0350    -2.9600 ha         1 ANL       0.113000
     11 H5           2.1280     0.0060    -1.7040 ha         1 ANL       0.108000
     12 H6           2.1350     0.0690     0.7490 ha         1 ANL       0.110000
     13 HN1          0.8270    -0.1800     2.7680 hn         1 ANL       0.446000
     14 HN2         -0.8400    -0.1860     2.7700 hn         1 ANL       0.446000
@<TRIPOS>BOND
     1     1     2 ar  
     2     1     6 ar  
     3     1     7 1   
     4     2     3 ar  
     5     2     8 1   
     6     3     4 ar  
     7     3     9 1   
     8     4     5 ar  
     9     4    10 1   
    10     5     6 ar  
    11     5    11 1   
    12     6    12 1   
    13     7    13 1   
    14     7    14 1   
@<TRIPOS>SUBSTRUCTURE
     1 ANL         1 TEMP              0 ****  ****    0 ROOT
