@<TRIPOS>MOLECULE
ANM
   38    39     1     0     0
SMALL
No Charge or Current Charge


@<TRIPOS>ATOM
      1 C1          68.4800   119.7450   100.4200 ca         1 ANM      -0.165500
      2 C2          62.7400   120.4010    98.6360 c5         1 ANM       0.097300
      3 C3          61.7660   119.4160    99.3610 c5         1 ANM       0.132300
      4 C4          62.2660   119.4670   100.8540 c5         1 ANM       0.145800
      5 C6          61.9270   124.0190    98.0780 c3         1 ANM      -0.154100
      6 C9          68.7650   120.4970   101.5800 ca         1 ANM       0.135100
      7 C10         67.8730   121.5020   101.9870 ca         1 ANM      -0.165500
      8 C11         66.7050   121.7610   101.2490 ca         1 ANM      -0.065500
      9 C12         66.4180   121.0130   100.0920 ca         1 ANM      -0.105300
     10 C13         67.3110   120.0040    99.6820 ca         1 ANM      -0.065500
     11 C15         65.1540   121.2910    99.2840 c3         1 ANM      -0.019100
     12 C16         64.0110   120.2740    99.5430 c5         1 ANM       0.146500
     13 N1          63.4260   120.4030   100.8980 n7         1 ANM      -0.820400
     14 O1          69.8950   120.2890   102.3450 os         1 ANM      -0.352100
     15 O3          63.3070   122.4330    96.8800 o          1 ANM      -0.484000
     16 O4          61.8400   118.0890    98.8140 oh         1 ANM      -0.652000
     17 H1          69.1480   118.9600   100.0770 ha         1 ANM       0.120500
     18 H2          62.9050   120.1250    97.5850 h1         1 ANM       0.087700
     19 H3          60.7320   119.7840    99.2950 h1         1 ANM       0.055700
     20 H41         62.5760   118.4650   101.1830 h1         1 ANM       0.067700
     21 H42         61.4680   119.7970   101.5350 h1         1 ANM       0.067700
     22 H61         60.8410   123.8920    98.1400 hc         1 ANM       0.071700
     23 H62         62.2080   124.7640    97.3260 hc         1 ANM       0.071700
     24 H63         62.1810   124.3450    99.0920 hc         1 ANM       0.071700
     25 H10         68.0880   122.0830   102.8800 ha         1 ANM       0.120500
     26 H11         66.0230   122.5410   101.5800 ha         1 ANM       0.109000
     27 H13         67.1000   119.4200    98.7890 ha         1 ANM       0.109000
     28 H141        70.4160   118.2840   102.0140 h1         1 ANM       0.041033
     29 H142        71.6840   119.2870   102.7490 h1         1 ANM       0.041033
     30 H143        71.3060   119.4730   101.0240 h1         1 ANM       0.041033
     31 H151        65.4090   121.2720    98.2170 hc         1 ANM       0.052200
     32 H152        64.8030   122.3100    99.4850 hc         1 ANM       0.052200
     33 H16         64.4440   119.2690    99.4130 h1         1 ANM       0.085700
     34 HN1         63.0510   121.3580   100.9570 hn         1 ANM       0.404000
     35 HO4         61.3330   118.0940    97.9720 ho         1 ANM       0.444000
     36 O2          62.1570   121.7390    98.7610 os         1 ANM      -0.465100
     37 C5          62.5660   122.6620    97.8260 c          1 ANM       0.592100
     38 C14         70.8700   119.2830   102.0140 c3         1 ANM       0.149900
@<TRIPOS>BOND
     1     1     6 ar  
     2     1    10 ar  
     3     1    17 1   
     4     2     3 1   
     5     2    12 1   
     6     2    18 1   
     7     2    36 1   
     8     3     4 1   
     9     3    16 1   
    10     3    19 1   
    11     4    13 1   
    12     4    20 1   
    13     4    21 1   
    14     5    22 1   
    15     5    23 1   
    16     5    24 1   
    17     5    37 1   
    18     6     7 ar  
    19     6    14 1   
    20     7     8 ar  
    21     7    25 1   
    22     8     9 ar  
    23     8    26 1   
    24     9    10 ar  
    25     9    11 1   
    26    10    27 1   
    27    11    12 1   
    28    11    31 1   
    29    11    32 1   
    30    12    13 1   
    31    12    33 1   
    32    13    34 1   
    33    14    38 1   
    34    15    37 2   
    35    16    35 1   
    36    28    38 1   
    37    29    38 1   
    38    30    38 1   
    39    36    37 1   
@<TRIPOS>SUBSTRUCTURE
     1 ANM         1 TEMP              0 ****  ****    0 ROOT
