@<TRIPOS>MOLECULE
ANM
   38    39     1     0     0
SMALL
abcg2


@<TRIPOS>ATOM
      1 C1          68.4700   119.7720   100.4220 ca         1 ANM      -0.165500
      2 C2          62.8010   120.4180    98.6840 c5         1 ANM       0.097300
      3 C3          61.7760   119.5280    99.3980 c5         1 ANM       0.132300
      4 C4          62.2810   119.4690   100.8590 c5         1 ANM       0.145800
      5 C6          61.9150   123.9610    98.0050 c3         1 ANM      -0.154100
      6 C9          68.7390   120.4750   101.5960 ca         1 ANM       0.135100
      7 C10         67.8400   121.4510   102.0320 ca         1 ANM      -0.165500
      8 C11         66.6930   121.7170   101.2990 ca         1 ANM      -0.065500
      9 C12         66.4050   121.0250   100.1210 ca         1 ANM      -0.105300
     10 C13         67.3120   120.0560    99.7010 ca         1 ANM      -0.065500
     11 C15         65.1480   121.3020    99.3370 c3         1 ANM      -0.019100
     12 C16         64.0630   120.2500    99.5400 c5         1 ANM       0.146500
     13 N1          63.5670   120.1870   100.9230 n7         1 ANM      -0.820400
     14 O1          69.8430   120.2820   102.3720 os         1 ANM      -0.352100
     15 O3          63.0680   122.2860    96.7120 o          1 ANM      -0.484000
     16 O4          61.7910   118.2020    98.8680 oh         1 ANM      -0.652000
     17 H1          69.1490   119.0150   100.0590 ha         1 ANM       0.120500
     18 H2          62.9330   120.1550    97.6380 h1         1 ANM       0.087700
     19 H3          60.7750   119.9580    99.3190 h1         1 ANM       0.055700
     20 H41         62.4160   118.4180   101.1240 h1         1 ANM       0.067700
     21 H42         61.5710   119.9070   101.5590 h1         1 ANM       0.067700
     22 H61         60.8260   123.8810    97.9830 hc         1 ANM       0.071700
     23 H62         62.2410   124.6640    97.2430 hc         1 ANM       0.071700
     24 H63         62.2030   124.3120    98.9950 hc         1 ANM       0.071700
     25 H10         68.0560   121.9950   102.9430 ha         1 ANM       0.120500
     26 H11         66.0070   122.4800   101.6500 ha         1 ANM       0.109000
     27 H13         67.1190   119.5040    98.7880 ha         1 ANM       0.109000
     28 H141        70.3500   118.3120   101.9110 h1         1 ANM       0.041033
     29 H142        71.5870   119.3220   102.7000 h1         1 ANM       0.041033
     30 H143        71.2130   119.5610   100.9750 h1         1 ANM       0.041033
     31 H151        65.3790   121.3440    98.2700 hc         1 ANM       0.052200
     32 H152        64.7510   122.2810    99.6180 hc         1 ANM       0.052200
     33 H16         64.4720   119.2660    99.2830 h1         1 ANM       0.085700
     34 HN1         63.4010   121.1350   101.2430 hn         1 ANM       0.404000
     35 HO4         61.4110   118.2240    97.9800 ho         1 ANM       0.444000
     36 O2          62.3170   121.7810    98.7780 os         1 ANM      -0.465100
     37 C5          62.5070   122.6090    97.7360 c          1 ANM       0.592100
     38 C14         70.7970   119.3080   101.9530 c3         1 ANM       0.149900
@<TRIPOS>BOND
     1     1     6 ar  
     2     1    10 ar  
     3     1    17 1   
     4     2     3 1   
     5     2    12 1   
     6     2    18 1   
     7     2    36 1   
     8     3     4 1   
     9     3    16 1   
    10     3    19 1   
    11     4    13 1   
    12     4    20 1   
    13     4    21 1   
    14     5    22 1   
    15     5    23 1   
    16     5    24 1   
    17     5    37 1   
    18     6     7 ar  
    19     6    14 1   
    20     7     8 ar  
    21     7    25 1   
    22     8     9 ar  
    23     8    26 1   
    24     9    10 ar  
    25     9    11 1   
    26    10    27 1   
    27    11    12 1   
    28    11    31 1   
    29    11    32 1   
    30    12    13 1   
    31    12    33 1   
    32    13    34 1   
    33    14    38 1   
    34    15    37 2   
    35    16    35 1   
    36    28    38 1   
    37    29    38 1   
    38    30    38 1   
    39    36    37 1   
@<TRIPOS>SUBSTRUCTURE
     1 ANM         1 TEMP              0 ****  ****    0 ROOT
