@<TRIPOS>MOLECULE
ANN
   18    18     1     0     0
SMALL
abcg2


@<TRIPOS>ATOM
      1 C8           0.8360    -0.0040     3.8760 c3         1 ANN       0.159900
      2 O3          -0.3230     0.0140     3.0680 os         1 ANN      -0.360100
      3 C5          -0.1740     0.0140     1.7290 ca         1 ANN       0.095100
      4 C6          -1.3510     0.0110     0.9750 ca         1 ANN      -0.199500
      5 C7          -1.2900     0.0160    -0.4060 ca         1 ANN      -0.057000
      6 C2          -0.0690     0.0230    -1.0820 ca         1 ANN      -0.160600
      7 C3           1.0910     0.0230    -0.3170 ca         1 ANN      -0.057000
      8 C4           1.0540     0.0180     1.0730 ca         1 ANN      -0.199500
      9 C1          -0.0120     0.0310    -2.6000 c          1 ANN       0.714600
     10 O1           1.1220     0.0380    -3.1200 o          1 ANN      -0.725500
     11 O2          -1.1050     0.0310    -3.2010 o          1 ANN      -0.725500
     12 H81          0.4950    -0.0090     4.9080 h1         1 ANN       0.024700
     13 H82          1.4440    -0.8960     3.7020 h1         1 ANN       0.024700
     14 H83          1.4610     0.8790     3.7170 h1         1 ANN       0.024700
     15 H6          -2.3070     0.0060     1.4840 ha         1 ANN       0.094000
     16 H7          -2.2100     0.0140    -0.9750 ha         1 ANN       0.126000
     17 H3           2.0530     0.0270    -0.8130 ha         1 ANN       0.126000
     18 H4           1.9860     0.0160     1.6240 ha         1 ANN       0.094000
@<TRIPOS>BOND
     1     1     2 1   
     2     1    12 1   
     3     1    13 1   
     4     1    14 1   
     5     2     3 1   
     6     3     4 ar  
     7     3     8 ar  
     8     4     5 ar  
     9     4    15 1   
    10     5     6 ar  
    11     5    16 1   
    12     6     7 ar  
    13     6     9 1   
    14     7     8 ar  
    15     7    17 1   
    16     8    18 1   
    17     9    10 1   
    18     9    11 1   
@<TRIPOS>SUBSTRUCTURE
     1 ANN         1 TEMP              0 ****  ****    0 ROOT
