@<TRIPOS>MOLECULE
ANN
   18    18     1     0     0
SMALL
No Charge or Current Charge


@<TRIPOS>ATOM
      1 C8           0.8490    -0.0030     3.9590 c3         1 ANN       0.159900
      2 O3          -0.3020     0.0010     3.0950 os         1 ANN      -0.360100
      3 C5          -0.1890     0.0080     1.7200 ca         1 ANN       0.095100
      4 C6          -1.3700     0.0110     0.9640 ca         1 ANN      -0.199500
      5 C7          -1.3190     0.0190    -0.4410 ca         1 ANN      -0.057000
      6 C2          -0.0770     0.0240    -1.1170 ca         1 ANN      -0.160600
      7 C3           1.1100     0.0210    -0.3470 ca         1 ANN      -0.057000
      8 C4           1.0560     0.0130     1.0590 ca         1 ANN      -0.199500
      9 C1          -0.0180     0.0320    -2.6350 c          1 ANN       0.714600
     10 O1           1.0770     0.0370    -3.1790 o          1 ANN      -0.725500
     11 O2          -1.0680     0.0340    -3.2620 o          1 ANN      -0.725500
     12 H81          0.5340    -0.0090     5.0100 h1         1 ANN       0.024700
     13 H82          1.4650    -0.8930     3.7820 h1         1 ANN       0.024700
     14 H83          1.4630     0.8910     3.7920 h1         1 ANN       0.024700
     15 H6          -2.3330     0.0070     1.4680 ha         1 ANN       0.094000
     16 H7          -2.2510     0.0210    -1.0030 ha         1 ANN       0.126000
     17 H3           2.0820     0.0250    -0.8360 ha         1 ANN       0.126000
     18 H4           1.9900     0.0110     1.6130 ha         1 ANN       0.094000
@<TRIPOS>BOND
     1     1     2 1   
     2     1    12 1   
     3     1    13 1   
     4     1    14 1   
     5     2     3 1   
     6     3     4 ar  
     7     3     8 ar  
     8     4     5 ar  
     9     4    15 1   
    10     5     6 ar  
    11     5    16 1   
    12     6     7 ar  
    13     6     9 1   
    14     7     8 ar  
    15     7    17 1   
    16     8    18 1   
    17     9    10 1   
    18     9    11 1   
@<TRIPOS>SUBSTRUCTURE
     1 ANN         1 TEMP              0 ****  ****    0 ROOT
