@<TRIPOS>MOLECULE
ANO
   49    52     1     0     0
SMALL
No Charge or Current Charge


@<TRIPOS>ATOM
      1 C1           1.4260    -0.8460     2.7430 c6         1 ANO      -0.064400
      2 C2           1.6870     0.6040     3.2250 c6         1 ANO      -0.185400
      3 C3           0.4340     1.2050     3.8640 c          1 ANO       0.575100
      4 O3           0.4580     1.7330     4.9690 o          1 ANO      -0.522100
      5 C4          -0.8610     1.0500     3.0640 c6         1 ANO      -0.184400
      6 C5          -1.0810    -0.4070     2.5360 c6         1 ANO      -0.042700
      7 C6          -2.3580    -0.4790     1.6490 c6         1 ANO      -0.070400
      8 C7          -2.1670     0.2090     0.2750 c6         1 ANO      -0.071400
      9 C8          -0.9330    -0.3490    -0.4870 c6         1 ANO      -0.043700
     10 C9           0.3700    -0.2730     0.3990 c6         1 ANO      -0.044700
     11 C10          0.1800    -1.0070     1.7980 c6         1 ANO      -0.033000
     12 C11          1.6340    -0.7450    -0.4090 c6         1 ANO      -0.073400
     13 C12          1.7940    -0.0100    -1.7730 c6         1 ANO      -0.051400
     14 C13          0.5070    -0.1250    -2.6420 c5         1 ANO      -0.154000
     15 C14         -0.6930     0.4260    -1.8120 c5         1 ANO      -0.060700
     16 C15         -1.8420     0.5170    -2.8630 c5         1 ANO      -0.068400
     17 C16         -1.0750     0.9290    -4.1680 c5         1 ANO      -0.191400
     18 C17          0.4290     0.8420    -3.8420 c          1 ANO       0.580100
     19 O17          1.3000     1.6080    -4.2360 o          1 ANO      -0.511100
     20 C18          0.3640    -1.6010    -3.1540 c3         1 ANO      -0.079100
     21 C19         -0.0140    -2.5540     1.6030 c3         1 ANO      -0.085100
     22 H11          1.2760    -1.4680     3.6370 hc         1 ANO       0.046700
     23 H12          2.3330    -1.2480     2.2750 hc         1 ANO       0.046700
     24 H21          2.5370     0.6680     3.9160 hc         1 ANO       0.067200
     25 H22          1.9110     1.1980     2.3310 hc         1 ANO       0.067200
     26 H41         -1.7120     1.4120     3.6570 hc         1 ANO       0.066200
     27 H42         -0.7430     1.7040     2.1940 hc         1 ANO       0.066200
     28 H5          -1.2730    -1.0270     3.4240 hc         1 ANO       0.051700
     29 H61         -2.6520    -1.5260     1.4950 hc         1 ANO       0.043700
     30 H62         -3.2030    -0.0140     2.1750 hc         1 ANO       0.043700
     31 H71         -3.0740     0.0560    -0.3260 hc         1 ANO       0.040200
     32 H72         -2.0740     1.2950     0.4050 hc         1 ANO       0.040200
     33 H8          -1.1440    -1.3940    -0.7440 hc         1 ANO       0.052700
     34 H9           0.5380     0.7920     0.5970 hc         1 ANO       0.042700
     35 H111         2.5440    -0.5590     0.1740 hc         1 ANO       0.042200
     36 H112         1.6050    -1.8280    -0.5780 hc         1 ANO       0.042200
     37 H121         2.0160     1.0500    -1.5790 hc         1 ANO       0.050700
     38 H122         2.6630    -0.4070    -2.3170 hc         1 ANO       0.050700
     39 H14         -0.4640     1.4490    -1.4850 hc         1 ANO       0.047700
     40 H151        -2.3570    -0.4440    -2.9840 hc         1 ANO       0.049200
     41 H152        -2.6020     1.2540    -2.5800 hc         1 ANO       0.049200
     42 H161        -1.2940     0.1900    -4.9450 hc         1 ANO       0.072200
     43 H162        -1.3250     1.9230    -4.5530 hc         1 ANO       0.072200
     44 H181         0.2830    -2.3240    -2.3350 hc         1 ANO       0.040367
     45 H182        -0.5170    -1.7510    -3.7870 hc         1 ANO       0.040367
     46 H183         1.2360    -1.8890    -3.7540 hc         1 ANO       0.040367
     47 H191        -0.2400    -3.0460     2.5560 hc         1 ANO       0.035367
     48 H192        -0.8310    -2.8070     0.9200 hc         1 ANO       0.035367
     49 H193         0.8910    -3.0320     1.2130 hc         1 ANO       0.035367
@<TRIPOS>BOND
     1     1     2 1   
     2     1    11 1   
     3     1    22 1   
     4     1    23 1   
     5     2     3 1   
     6     2    24 1   
     7     2    25 1   
     8     3     4 2   
     9     3     5 1   
    10     5     6 1   
    11     5    26 1   
    12     5    27 1   
    13     6     7 1   
    14     6    11 1   
    15     6    28 1   
    16     7     8 1   
    17     7    29 1   
    18     7    30 1   
    19     8     9 1   
    20     8    31 1   
    21     8    32 1   
    22     9    10 1   
    23     9    15 1   
    24     9    33 1   
    25    10    11 1   
    26    10    12 1   
    27    10    34 1   
    28    11    21 1   
    29    12    13 1   
    30    12    35 1   
    31    12    36 1   
    32    13    14 1   
    33    13    37 1   
    34    13    38 1   
    35    14    15 1   
    36    14    18 1   
    37    14    20 1   
    38    15    16 1   
    39    15    39 1   
    40    16    17 1   
    41    16    40 1   
    42    16    41 1   
    43    17    18 1   
    44    17    42 1   
    45    17    43 1   
    46    18    19 2   
    47    20    44 1   
    48    20    45 1   
    49    20    46 1   
    50    21    47 1   
    51    21    48 1   
    52    21    49 1   
@<TRIPOS>SUBSTRUCTURE
     1 ANO         1 TEMP              0 ****  ****    0 ROOT
