@<TRIPOS>MOLECULE
ANO
   49    52     1     0     0
SMALL
bcc


@<TRIPOS>ATOM
      1 C1           1.3830    -0.8450     2.6640 c6         1 ANO      -0.064400
      2 C2           1.6520     0.5920     3.1110 c6         1 ANO      -0.185400
      3 C3           0.4350     1.1710     3.7750 c          1 ANO       0.575100
      4 O3           0.4810     1.7400     4.8460 o          1 ANO      -0.522100
      5 C4          -0.8430     0.9990     3.0030 c6         1 ANO      -0.184400
      6 C5          -1.0660    -0.4340     2.4860 c6         1 ANO      -0.042700
      7 C6          -2.3280    -0.4970     1.6280 c6         1 ANO      -0.070400
      8 C7          -2.1440     0.1880     0.2800 c6         1 ANO      -0.071400
      9 C8          -0.9320    -0.3520    -0.4750 c6         1 ANO      -0.043700
     10 C9           0.3410    -0.2570     0.3960 c6         1 ANO      -0.044700
     11 C10          0.1650    -1.0040     1.7420 c6         1 ANO      -0.033000
     12 C11          1.6150    -0.6580    -0.3650 c6         1 ANO      -0.073400
     13 C12          1.7710     0.0560    -1.7120 c6         1 ANO      -0.051400
     14 C13          0.5170    -0.1280    -2.5480 c5         1 ANO      -0.154000
     15 C14         -0.6950     0.4000    -1.7700 c5         1 ANO      -0.060700
     16 C15         -1.8030     0.4740    -2.8220 c5         1 ANO      -0.068400
     17 C16         -1.0600     0.9930    -4.0620 c5         1 ANO      -0.191400
     18 C17          0.4110     0.6810    -3.8220 c          1 ANO       0.580100
     19 O17          1.3260     1.0220    -4.5330 o          1 ANO      -0.511100
     20 C18          0.3600    -1.5910    -3.0030 c3         1 ANO      -0.079100
     21 C19         -0.0220    -2.5120     1.5260 c3         1 ANO      -0.085100
     22 H11          1.2160    -1.4610     3.5550 hc         1 ANO       0.046700
     23 H12          2.2800    -1.2500     2.1920 hc         1 ANO       0.046700
     24 H21          2.5050     0.6370     3.7900 hc         1 ANO       0.067200
     25 H22          1.8990     1.2160     2.2440 hc         1 ANO       0.067200
     26 H41         -1.6880     1.3070     3.6220 hc         1 ANO       0.066200
     27 H42         -0.7960     1.7050     2.1660 hc         1 ANO       0.066200
     28 H5          -1.2260    -1.0630     3.3710 hc         1 ANO       0.051700
     29 H61         -2.6040    -1.5440     1.4690 hc         1 ANO       0.043700
     30 H62         -3.1640    -0.0450     2.1690 hc         1 ANO       0.043700
     31 H71         -3.0470     0.0580    -0.3220 hc         1 ANO       0.040200
     32 H72         -2.0300     1.2700     0.4170 hc         1 ANO       0.040200
     33 H8          -1.1330    -1.4020    -0.7180 hc         1 ANO       0.052700
     34 H9           0.4580     0.8140     0.6180 hc         1 ANO       0.042700
     35 H111         2.4900    -0.4250     0.2450 hc         1 ANO       0.042200
     36 H112         1.6400    -1.7400    -0.5200 hc         1 ANO       0.042200
     37 H121         1.9370     1.1250    -1.5400 hc         1 ANO       0.050700
     38 H122         2.6560    -0.3200    -2.2310 hc         1 ANO       0.050700
     39 H14         -0.4530     1.4400    -1.4970 hc         1 ANO       0.047700
     40 H151        -2.2380    -0.5110    -3.0030 hc         1 ANO       0.049200
     41 H152        -2.6190     1.1340    -2.5260 hc         1 ANO       0.049200
     42 H161        -1.3950     0.5470    -5.0010 hc         1 ANO       0.072200
     43 H162        -1.1700     2.0740    -4.1740 hc         1 ANO       0.072200
     44 H181         0.2310    -2.2700    -2.1610 hc         1 ANO       0.040367
     45 H182        -0.4910    -1.7400    -3.6690 hc         1 ANO       0.040367
     46 H183         1.2540    -1.9070    -3.5430 hc         1 ANO       0.040367
     47 H191        -0.2650    -3.0020     2.4710 hc         1 ANO       0.035367
     48 H192        -0.8170    -2.7520     0.8220 hc         1 ANO       0.035367
     49 H193         0.8910    -2.9770     1.1500 hc         1 ANO       0.035367
@<TRIPOS>BOND
     1     1     2 1   
     2     1    11 1   
     3     1    22 1   
     4     1    23 1   
     5     2     3 1   
     6     2    24 1   
     7     2    25 1   
     8     3     4 2   
     9     3     5 1   
    10     5     6 1   
    11     5    26 1   
    12     5    27 1   
    13     6     7 1   
    14     6    11 1   
    15     6    28 1   
    16     7     8 1   
    17     7    29 1   
    18     7    30 1   
    19     8     9 1   
    20     8    31 1   
    21     8    32 1   
    22     9    10 1   
    23     9    15 1   
    24     9    33 1   
    25    10    11 1   
    26    10    12 1   
    27    10    34 1   
    28    11    21 1   
    29    12    13 1   
    30    12    35 1   
    31    12    36 1   
    32    13    14 1   
    33    13    37 1   
    34    13    38 1   
    35    14    15 1   
    36    14    18 1   
    37    14    20 1   
    38    15    16 1   
    39    15    39 1   
    40    16    17 1   
    41    16    40 1   
    42    16    41 1   
    43    17    18 1   
    44    17    42 1   
    45    17    43 1   
    46    18    19 2   
    47    20    44 1   
    48    20    45 1   
    49    20    46 1   
    50    21    47 1   
    51    21    48 1   
    52    21    49 1   
@<TRIPOS>SUBSTRUCTURE
     1 ANO         1 TEMP              0 ****  ****    0 ROOT
