@<TRIPOS>MOLECULE
ANP
   44    46     1     0     0
SMALL
No Charge or Current Charge


@<TRIPOS>ATOM
      1 PG          17.5540     1.1610    29.8270 p5         1 ANP       1.310800
      2 O1G         17.8400    -0.2920    29.7930 o          1 ANP      -0.962500
      3 O2G         18.5840     1.9700    29.1480 o          1 ANP      -0.962500
      4 O3G         16.1990     1.4700    29.3090 o          1 ANP      -0.962500
      5 PB          18.4940     1.1710    32.4360 p5         1 ANP       1.448700
      6 O1B         17.8160    -0.0490    32.9660 o          1 ANP      -0.895500
      7 O2B         19.8930     1.0060    31.9600 o          1 ANP      -0.895500
      8 N3B         17.6370     1.7950    31.2500 n7         1 ANP      -0.990600
      9 PA          19.3000     2.5100    34.5410 p5         1 ANP       1.466800
     10 O1A         19.5200     1.2350    35.2820 o          1 ANP      -0.859500
     11 O2A         20.5780     3.1910    34.1730 o          1 ANP      -0.859500
     12 O3A         18.2680     2.4280    33.3530 os         1 ANP      -0.705800
     13 O5          18.4320     3.5000    35.4700 os         1 ANP      -0.608400
     14 C5          18.3390     4.9000    35.1420 c3         1 ANP       0.231600
     15 C4          19.2550     5.7680    36.0630 c5         1 ANP       0.084300
     16 O4          18.6170     6.0090    37.3410 os         1 ANP      -0.457000
     17 C3          20.6500     5.2110    36.4690 c5         1 ANP       0.188300
     18 O3          21.5970     5.1070    35.3900 oh         1 ANP      -0.772000
     19 C2          21.0280     6.2700    37.5670 c5         1 ANP       0.110300
     20 O2          21.4400     7.5450    37.0170 oh         1 ANP      -0.683000
     21 C1          19.6360     6.3770    38.3080 c5         1 ANP       0.278300
     22 N9          19.4350     5.5740    39.5180 na         1 ANP      -0.288300
     23 C8          20.0810     4.3710    39.8430 cc         1 ANP       0.493700
     24 N7          19.6910     3.9140    41.0520 nd         1 ANP      -0.579100
     25 C7          18.7710     4.8760    41.4790 ca         1 ANP      -0.066600
     26 C6          18.0260     4.9370    42.6770 ca         1 ANP       0.406900
     27 N6          18.1090     3.9900    43.6520 nv         1 ANP      -1.064900
     28 N1          17.1750     5.9480    42.9140 nb         1 ANP      -0.331000
     29 C10         17.0870     6.8920    41.9450 ca         1 ANP       0.123900
     30 N3          17.7640     6.9150    40.7720 nb         1 ANP      -0.215000
     31 C9          18.6060     5.8830    40.5610 ca         1 ANP       0.084500
     32 HNB1        18.4580     2.2200    30.8430 hn         1 ANP       0.410000
     33 H5'1        18.6330     5.0780    34.0990 h1         1 ANP       0.048700
     34 H5'2        17.3030     5.2480    35.2440 h1         1 ANP       0.048700
     35 H4          19.3690     6.7420    35.5670 h1         1 ANP       0.047700
     36 H3          20.5260     4.2240    36.9360 h1         1 ANP       0.064700
     37 HO3         21.2530     4.3220    34.8230 ho         1 ANP       0.622000
     38 H2          21.8110     5.8820    38.2330 h1         1 ANP       0.051700
     39 HO2         21.8890     8.0440    37.7360 ho         1 ANP       0.464000
     40 H1          19.4750     7.4140    38.6260 h2         1 ANP       0.052700
     41 H8          20.8020     3.8940    39.1870 h5         1 ANP       0.149800
     42 HN61        17.3660     3.9470    44.3440 hn         1 ANP       0.480000
     43 HN62        18.5760     3.1180    43.4180 hn         1 ANP       0.480000
     44 H6          16.4020     7.7170    42.1280 h5         1 ANP       0.010100
@<TRIPOS>BOND
     1     1     2 1   
     2     1     3 1   
     3     1     4 1   
     4     1     8 1   
     5     5     6 1   
     6     5     7 1   
     7     5     8 1   
     8     5    12 1   
     9     8    32 1   
    10     9    10 1   
    11     9    11 1   
    12     9    12 1   
    13     9    13 1   
    14    13    14 1   
    15    14    15 1   
    16    14    33 1   
    17    14    34 1   
    18    15    16 1   
    19    15    17 1   
    20    15    35 1   
    21    16    21 1   
    22    17    18 1   
    23    17    19 1   
    24    17    36 1   
    25    18    37 1   
    26    19    20 1   
    27    19    21 1   
    28    19    38 1   
    29    20    39 1   
    30    21    22 1   
    31    21    40 1   
    32    22    23 1   
    33    22    31 1   
    34    23    24 2   
    35    23    41 1   
    36    24    25 1   
    37    25    26 ar  
    38    25    31 ar  
    39    26    27 1   
    40    26    28 ar  
    41    27    42 1   
    42    27    43 1   
    43    28    29 ar  
    44    29    30 ar  
    45    29    44 1   
    46    30    31 ar  
@<TRIPOS>SUBSTRUCTURE
     1 ANP         1 TEMP              0 ****  ****    0 ROOT
