@<TRIPOS>MOLECULE
ANP
   44    46     1     0     0
SMALL
bcc


@<TRIPOS>ATOM
      1 PG          18.9710     1.3210    29.9390 p5         1 ANP       1.311800
      2 O1G         19.2330    -0.1750    29.7530 o          1 ANP      -0.970167
      3 O2G         20.0780     2.2290    29.4020 o          1 ANP      -0.970167
      4 O3G         17.5580     1.7520    29.5490 o          1 ANP      -0.970167
      5 PB          18.5730     0.6400    32.9370 p5         1 ANP       1.447700
      6 O1B         17.3200    -0.0910    32.5520 o          1 ANP      -0.895000
      7 O2B         19.7060    -0.1000    33.6030 o          1 ANP      -0.895000
      8 N3B         19.0910     1.6360    31.7020 n7         1 ANP      -0.934400
      9 PA          18.9550     2.4940    35.1930 p5         1 ANP       1.465800
     10 O1A         19.1540     1.6540    36.4110 o          1 ANP      -0.859500
     11 O2A         20.1450     3.1480    34.5140 o          1 ANP      -0.859500
     12 O3A         18.0320     1.7730    34.0840 os         1 ANP      -0.704800
     13 O5          17.8880     3.6730    35.6530 os         1 ANP      -0.586200
     14 C5          17.8910     4.9340    35.0210 c3         1 ANP       0.208400
     15 C4          18.6520     5.9810    35.8090 c5         1 ANP       0.061100
     16 O4          17.9220     6.3830    36.9730 os         1 ANP      -0.410600
     17 C3          20.0130     5.5480    36.3630 c5         1 ANP       0.166100
     18 O3          21.0210     5.4650    35.4160 oh         1 ANP      -0.649800
     19 C2          20.2270     6.5790    37.4590 c5         1 ANP       0.087100
     20 O2          20.6100     7.7960    36.8830 oh         1 ANP      -0.559800
     21 C1          18.7950     6.6550    38.0260 c5         1 ANP       0.224800
     22 N9          18.5740     5.6780    39.0860 na         1 ANP      -0.258000
     23 C8          18.0110     4.4340    38.9910 cc         1 ANP       0.497700
     24 N7          17.9840     3.7930    40.1240 nd         1 ANP      -0.579100
     25 C7          18.5640     4.6540    41.0170 ca         1 ANP      -0.196200
     26 C6          18.8320     4.5710    42.3940 ca         1 ANP       0.741200
     27 N6          18.5480     3.4820    43.1230 nv         1 ANP      -0.954500
     28 N1          19.4250     5.6140    42.9830 nb         1 ANP      -0.859000
     29 C10         19.7360     6.6810    42.2520 ca         1 ANP       0.654900
     30 N3          19.5340     6.8780    40.9610 nb         1 ANP      -0.738000
     31 C9          18.9420     5.8320    40.3900 ca         1 ANP       0.411800
     32 HNB1        19.9260     2.1520    31.9440 hn         1 ANP       0.352800
     33 H5'1        18.3300     4.8930    34.0200 h1         1 ANP       0.049200
     34 H5'2        16.8540     5.2580    34.8950 h1         1 ANP       0.049200
     35 H4          18.7820     6.8470    35.1480 h1         1 ANP       0.048700
     36 H3          19.8850     4.5890    36.8850 h1         1 ANP       0.063700
     37 HO3         20.8440     4.5990    34.9710 ho         1 ANP       0.524000
     38 H2          20.9390     6.2440    38.2220 h1         1 ANP       0.050700
     39 HO2         20.7700     8.4350    37.5840 ho         1 ANP       0.365000
     40 H1          18.5850     7.6400    38.4560 h2         1 ANP       0.052700
     41 H8          17.6380     4.0480    38.0550 h5         1 ANP       0.150800
     42 HN61        18.5950     3.5470    44.1260 hn         1 ANP       0.426800
     43 HN62        17.9340     2.7820    42.7460 hn         1 ANP       0.426800
     44 H6          20.2160     7.4910    42.7900 h5         1 ANP       0.011100
@<TRIPOS>BOND
     1     1     2 1   
     2     1     3 1   
     3     1     4 1   
     4     1     8 1   
     5     5     6 1   
     6     5     7 1   
     7     5     8 1   
     8     5    12 1   
     9     8    32 1   
    10     9    10 1   
    11     9    11 1   
    12     9    12 1   
    13     9    13 1   
    14    13    14 1   
    15    14    15 1   
    16    14    33 1   
    17    14    34 1   
    18    15    16 1   
    19    15    17 1   
    20    15    35 1   
    21    16    21 1   
    22    17    18 1   
    23    17    19 1   
    24    17    36 1   
    25    18    37 1   
    26    19    20 1   
    27    19    21 1   
    28    19    38 1   
    29    20    39 1   
    30    21    22 1   
    31    21    40 1   
    32    22    23 1   
    33    22    31 1   
    34    23    24 2   
    35    23    41 1   
    36    24    25 1   
    37    25    26 ar  
    38    25    31 ar  
    39    26    27 1   
    40    26    28 ar  
    41    27    42 1   
    42    27    43 1   
    43    28    29 ar  
    44    29    30 ar  
    45    29    44 1   
    46    30    31 ar  
@<TRIPOS>SUBSTRUCTURE
     1 ANP         1 TEMP              0 ****  ****    0 ROOT
