@<TRIPOS>MOLECULE
ANQ
   20    22     1     0     0
SMALL
bcc


@<TRIPOS>ATOM
      1 O1          -1.4520    -0.0370    -2.7600 o          1 ANQ      -0.213500
      2 C1          -0.7830    -0.0300    -1.7620 c          1 ANQ       0.231000
      3 C81         -1.1850    -0.0230    -0.3500 ca         1 ANQ      -0.165000
      4 C8          -2.4030    -0.0230     0.2770 ca         1 ANQ      -0.029500
      5 C82         -0.0030    -0.0160     0.4150 ca         1 ANQ      -0.004000
      6 C21          1.1810    -0.0170    -0.3480 ca         1 ANQ      -0.165000
      7 C2           0.7810    -0.0280    -1.7600 c          1 ANQ       0.231000
      8 O2           1.4520    -0.0350    -2.7570 o          1 ANQ      -0.213500
      9 C3           2.3970    -0.0110     0.2820 ca         1 ANQ      -0.029500
     10 C51         -0.0050    -0.0080     1.8130 ca         1 ANQ      -0.053000
     11 C6          -1.2730    -0.0080     2.4400 ca         1 ANQ      -0.075000
     12 C7          -2.4280    -0.0160     1.6890 ca         1 ANQ      -0.147500
     13 C5           1.2620    -0.0020     2.4430 ca         1 ANQ      -0.075000
     14 C4           2.4190    -0.0030     1.6940 ca         1 ANQ      -0.147500
     15 H8          -3.3300    -0.0290    -0.2820 ha         1 ANQ       0.151000
     16 H3           3.3250    -0.0120    -0.2750 ha         1 ANQ       0.151000
     17 H6          -1.3360    -0.0040     3.5210 ha         1 ANQ       0.137000
     18 H7          -3.3840    -0.0160     2.1940 ha         1 ANQ       0.139000
     19 H5           1.3240     0.0040     3.5240 ha         1 ANQ       0.137000
     20 H4           3.3740     0.0020     2.2010 ha         1 ANQ       0.139000
@<TRIPOS>BOND
     1     1     2 2   
     2     2     3 1   
     3     2     7 1   
     4     3     4 ar  
     5     3     5 ar  
     6     4    12 ar  
     7     4    15 1   
     8     5     6 ar  
     9     5    10 ar  
    10     6     7 1   
    11     6     9 ar  
    12     7     8 2   
    13     9    14 ar  
    14     9    16 1   
    15    10    11 ar  
    16    10    13 ar  
    17    11    12 ar  
    18    11    17 1   
    19    12    18 1   
    20    13    14 ar  
    21    13    19 1   
    22    14    20 1   
@<TRIPOS>SUBSTRUCTURE
     1 ANQ         1 TEMP              0 ****  ****    0 ROOT
