@<TRIPOS>MOLECULE
ANQ
   20    22     1     0     0
SMALL
No Charge or Current Charge


@<TRIPOS>ATOM
      1 O1          -1.5190    -0.0390    -2.7650 o          1 ANQ      -0.213500
      2 C1          -0.7820    -0.0310    -1.7910 c          1 ANQ       0.231000
      3 C81         -1.1610    -0.0240    -0.3460 ca         1 ANQ      -0.165000
      4 C8          -2.4180    -0.0230     0.2770 ca         1 ANQ      -0.011500
      5 C82         -0.0030    -0.0170     0.4180 ca         1 ANQ      -0.004000
      6 C21          1.1570    -0.0180    -0.3440 ca         1 ANQ      -0.165000
      7 C2           0.7800    -0.0270    -1.7890 c          1 ANQ       0.231000
      8 O2           1.5190    -0.0310    -2.7620 o          1 ANQ      -0.213500
      9 C3           2.4120    -0.0110     0.2820 ca         1 ANQ      -0.011500
     10 C51         -0.0050    -0.0090     1.8060 ca         1 ANQ      -0.053000
     11 C6          -1.2560    -0.0080     2.4590 ca         1 ANQ      -0.057000
     12 C7          -2.4540    -0.0160     1.6940 ca         1 ANQ      -0.129500
     13 C5           1.2450    -0.0020     2.4620 ca         1 ANQ      -0.057000
     14 C4           2.4450    -0.0030     1.6990 ca         1 ANQ      -0.129500
     15 H8          -3.3360    -0.0290    -0.3090 ha         1 ANQ       0.133000
     16 H3           3.3310    -0.0130    -0.3020 ha         1 ANQ       0.133000
     17 H6          -1.3060    -0.0020     3.5460 ha         1 ANQ       0.119000
     18 H7          -3.4140    -0.0150     2.2040 ha         1 ANQ       0.121000
     19 H5           1.2930     0.0040     3.5490 ha         1 ANQ       0.119000
     20 H4           3.4040     0.0020     2.2110 ha         1 ANQ       0.121000
@<TRIPOS>BOND
     1     1     2 2   
     2     2     3 1   
     3     2     7 1   
     4     3     4 ar  
     5     3     5 ar  
     6     4    12 ar  
     7     4    15 1   
     8     5     6 ar  
     9     5    10 ar  
    10     6     7 1   
    11     6     9 ar  
    12     7     8 2   
    13     9    14 ar  
    14     9    16 1   
    15    10    11 ar  
    16    10    13 ar  
    17    11    12 ar  
    18    11    17 1   
    19    12    18 1   
    20    13    14 ar  
    21    13    19 1   
    22    14    20 1   
@<TRIPOS>SUBSTRUCTURE
     1 ANQ         1 TEMP              0 ****  ****    0 ROOT
