@<TRIPOS>MOLECULE
ANR
   48    48     1     0     0
SMALL
No Charge or Current Charge


@<TRIPOS>ATOM
      1 C15          8.1640     0.8570    -0.3390 c2         1 ANR      -0.309000
      2 C14          6.8400     1.1080    -0.2180 ce         1 ANR      -0.182000
      3 C13          5.7760     0.1010    -0.0270 ce         1 ANR      -0.068200
      4 C20          6.2060    -1.3040     0.3900 c3         1 ANR      -0.053900
      5 C12          4.4660     0.4630    -0.1660 cf         1 ANR      -0.176000
      6 C11          3.2890    -0.3910    -0.0160 cf         1 ANR      -0.176000
      7 C10          2.0060     0.0600    -0.1120 ce         1 ANR      -0.172000
      8 C9           0.7680    -0.7360     0.0120 ce         1 ANR      -0.076200
      9 C19          0.8980    -2.1430     0.5920 c3         1 ANR      -0.053900
     10 C8          -0.4370    -0.1830    -0.3170 cf         1 ANR      -0.163000
     11 C7          -1.7410    -0.8490    -0.2690 cf         1 ANR      -0.187000
     12 C6          -3.0060    -0.2850    -0.0900 ce         1 ANR      -0.039200
     13 C1          -3.2470     1.2560     0.1320 c6         1 ANR      -0.002800
     14 C17         -3.0520     2.0170    -1.2180 c3         1 ANR      -0.081100
     15 C18         -2.2920     1.8660     1.2120 c3         1 ANR      -0.081100
     16 C2          -4.7200     1.5190     0.6500 c6         1 ANR      -0.069400
     17 C3          -5.8470     0.8110    -0.1570 c6         1 ANR      -0.042200
     18 C4          -5.5060    -0.6550    -0.2310 c2         1 ANR      -0.207200
     19 C5          -4.2400    -1.1420    -0.1900 ce         1 ANR      -0.084200
     20 C16         -4.0550    -2.6570    -0.2140 c3         1 ANR      -0.052900
     21 H151         8.8800     1.6670    -0.4880 ha         1 ANR       0.162500
     22 H152         8.5840    -0.1490    -0.3120 ha         1 ANR       0.162500
     23 H14          6.5020     2.1450    -0.2840 ha         1 ANR       0.168000
     24 H201         7.1260    -1.2950     0.9850 hc         1 ANR       0.041700
     25 H202         5.4580    -1.7980     1.0200 hc         1 ANR       0.041700
     26 H203         6.3790    -1.9410    -0.4860 hc         1 ANR       0.041700
     27 H12          4.2610     1.5020    -0.4330 ha         1 ANR       0.168000
     28 H11          3.4590    -1.4530     0.1590 ha         1 ANR       0.174000
     29 H10          1.8650     1.1230    -0.3180 ha         1 ANR       0.168000
     30 H191         1.6750    -2.1960     1.3630 hc         1 ANR       0.041033
     31 H192        -0.0250    -2.4780     1.0790 hc         1 ANR       0.041033
     32 H193         1.1470    -2.8710    -0.1890 hc         1 ANR       0.041033
     33 H8          -0.4150     0.8340    -0.6980 ha         1 ANR       0.172000
     34 H7          -1.6260    -1.9380    -0.4340 ha         1 ANR       0.170000
     35 H171        -3.7050     1.6130    -2.0000 hc         1 ANR       0.035200
     36 H172        -3.2860     3.0830    -1.1110 hc         1 ANR       0.035200
     37 H173        -2.0280     1.9510    -1.5970 hc         1 ANR       0.035200
     38 H181        -1.2660     2.0100     0.8650 hc         1 ANR       0.035200
     39 H182        -2.6380     2.8570     1.5290 hc         1 ANR       0.035200
     40 H183        -2.2560     1.2330     2.1070 hc         1 ANR       0.035200
     41 H21         -4.7930     1.1780     1.6930 hc         1 ANR       0.042200
     42 H22         -4.9240     2.5980     0.6800 hc         1 ANR       0.042200
     43 H31         -6.8180     0.9560     0.3350 hc         1 ANR       0.048700
     44 H32         -5.9290     1.2330    -1.1680 hc         1 ANR       0.048700
     45 H4          -6.3610    -1.3290    -0.2980 ha         1 ANR       0.170000
     46 H161        -3.4180    -2.9960     0.6120 hc         1 ANR       0.039700
     47 H162        -5.0070    -3.1910    -0.1140 hc         1 ANR       0.039700
     48 H163        -3.6010    -2.9870    -1.1550 hc         1 ANR       0.039700
@<TRIPOS>BOND
     1     1     2 2   
     2     1    21 1   
     3     1    22 1   
     4     2     3 1   
     5     2    23 1   
     6     3     4 1   
     7     3     5 2   
     8     4    24 1   
     9     4    25 1   
    10     4    26 1   
    11     5     6 1   
    12     5    27 1   
    13     6     7 2   
    14     6    28 1   
    15     7     8 1   
    16     7    29 1   
    17     8     9 1   
    18     8    10 2   
    19     9    30 1   
    20     9    31 1   
    21     9    32 1   
    22    10    11 1   
    23    10    33 1   
    24    11    12 2   
    25    11    34 1   
    26    12    13 1   
    27    12    19 1   
    28    13    14 1   
    29    13    15 1   
    30    13    16 1   
    31    14    35 1   
    32    14    36 1   
    33    14    37 1   
    34    15    38 1   
    35    15    39 1   
    36    15    40 1   
    37    16    17 1   
    38    16    41 1   
    39    16    42 1   
    40    17    18 1   
    41    17    43 1   
    42    17    44 1   
    43    18    19 2   
    44    18    45 1   
    45    19    20 1   
    46    20    46 1   
    47    20    47 1   
    48    20    48 1   
@<TRIPOS>SUBSTRUCTURE
     1 ANR         1 TEMP              0 ****  ****    0 ROOT
