@<TRIPOS>MOLECULE
ANR
   48    48     1     0     0
SMALL
abcg2


@<TRIPOS>ATOM
      1 C15          8.0120     0.8940    -0.1970 c2         1 ANR      -0.309000
      2 C14          6.6890     1.0730    -0.2630 ce         1 ANR      -0.182000
      3 C13          5.6790     0.0410    -0.0650 ce         1 ANR      -0.068200
      4 C20          6.1530    -1.3500     0.2280 c3         1 ANR      -0.053900
      5 C12          4.3770     0.3990    -0.1540 cf         1 ANR      -0.176000
      6 C11          3.2270    -0.4510    -0.0020 cf         1 ANR      -0.176000
      7 C10          1.9610     0.0160    -0.0800 ce         1 ANR      -0.172000
      8 C9           0.7590    -0.7780     0.0550 ce         1 ANR      -0.076200
      9 C19          0.9180    -2.2510     0.2880 c3         1 ANR      -0.053900
     10 C8          -0.4380    -0.1370    -0.0280 cf         1 ANR      -0.163000
     11 C7          -1.7320    -0.7600     0.0420 cf         1 ANR      -0.187000
     12 C6          -2.9690    -0.2030     0.0790 ce         1 ANR      -0.039200
     13 C1          -3.2400     1.3020     0.1420 c6         1 ANR      -0.002800
     14 C17         -3.0230     1.9090    -1.2520 c3         1 ANR      -0.081100
     15 C18         -2.3580     2.0280     1.1720 c3         1 ANR      -0.081100
     16 C2          -4.6870     1.5660     0.5910 c6         1 ANR      -0.069400
     17 C3          -5.7250     0.8000    -0.2010 c6         1 ANR      -0.042200
     18 C4          -5.3710    -0.6450    -0.2220 c2         1 ANR      -0.207200
     19 C5          -4.1250    -1.1110    -0.0440 ce         1 ANR      -0.084200
     20 C16         -3.9050    -2.6020    -0.0440 c3         1 ANR      -0.052900
     21 H151         8.6920     1.7180    -0.3650 ha         1 ANR       0.162500
     22 H152         8.4630    -0.0660     0.0230 ha         1 ANR       0.162500
     23 H14          6.3120     2.0670    -0.4870 ha         1 ANR       0.168000
     24 H201         6.7520    -1.3690     1.1410 hc         1 ANR       0.041700
     25 H202         5.3400    -2.0610     0.3530 hc         1 ANR       0.041700
     26 H203         6.7940    -1.7200    -0.5750 hc         1 ANR       0.041700
     27 H12          4.1630     1.4440    -0.3650 ha         1 ANR       0.168000
     28 H11          3.3890    -1.5070     0.1810 ha         1 ANR       0.174000
     29 H10          1.8170     1.0790    -0.2570 ha         1 ANR       0.168000
     30 H191         1.4560    -2.4400     1.2200 hc         1 ANR       0.041033
     31 H192        -0.0270    -2.7830     0.3510 hc         1 ANR       0.041033
     32 H193         1.5020    -2.7100    -0.5110 hc         1 ANR       0.041033
     33 H8          -0.3880     0.9300    -0.1960 ha         1 ANR       0.172000
     34 H7          -1.6990    -1.8410     0.0170 ha         1 ANR       0.170000
     35 H171        -3.6530     1.4320    -2.0050 hc         1 ANR       0.035200
     36 H172        -3.2600     2.9750    -1.2450 hc         1 ANR       0.035200
     37 H173        -1.9890     1.8000    -1.5800 hc         1 ANR       0.035200
     38 H181        -1.3390     2.2010     0.8360 hc         1 ANR       0.035200
     39 H182        -2.7850     3.0100     1.3840 hc         1 ANR       0.035200
     40 H183        -2.3140     1.4760     2.1120 hc         1 ANR       0.035200
     41 H21         -4.7830     1.2890     1.6460 hc         1 ANR       0.042200
     42 H22         -4.8750     2.6420     0.5330 hc         1 ANR       0.042200
     43 H31         -6.7140     0.9340     0.2440 hc         1 ANR       0.048700
     44 H32         -5.8130     1.1870    -1.2230 hc         1 ANR       0.048700
     45 H4          -6.1750    -1.3570    -0.3810 ha         1 ANR       0.170000
     46 H161        -3.3870    -2.9380     0.8570 hc         1 ANR       0.039700
     47 H162        -4.8580    -3.1270    -0.0880 hc         1 ANR       0.039700
     48 H163        -3.3100    -2.9340    -0.8970 hc         1 ANR       0.039700
@<TRIPOS>BOND
     1     1     2 2   
     2     1    21 1   
     3     1    22 1   
     4     2     3 1   
     5     2    23 1   
     6     3     4 1   
     7     3     5 2   
     8     4    24 1   
     9     4    25 1   
    10     4    26 1   
    11     5     6 1   
    12     5    27 1   
    13     6     7 2   
    14     6    28 1   
    15     7     8 1   
    16     7    29 1   
    17     8     9 1   
    18     8    10 2   
    19     9    30 1   
    20     9    31 1   
    21     9    32 1   
    22    10    11 1   
    23    10    33 1   
    24    11    12 2   
    25    11    34 1   
    26    12    13 1   
    27    12    19 1   
    28    13    14 1   
    29    13    15 1   
    30    13    16 1   
    31    14    35 1   
    32    14    36 1   
    33    14    37 1   
    34    15    38 1   
    35    15    39 1   
    36    15    40 1   
    37    16    17 1   
    38    16    41 1   
    39    16    42 1   
    40    17    18 1   
    41    17    43 1   
    42    17    44 1   
    43    18    19 2   
    44    18    45 1   
    45    19    20 1   
    46    20    46 1   
    47    20    47 1   
    48    20    48 1   
@<TRIPOS>SUBSTRUCTURE
     1 ANR         1 TEMP              0 ****  ****    0 ROOT
