@<TRIPOS>MOLECULE
ANS
   29    30     1     0     0
SMALL
No Charge or Current Charge


@<TRIPOS>ATOM
      1 C1          -0.5700    -0.0550    -1.3020 ca         1 ANS      -0.207500
      2 C2          -1.9720    -0.1440    -1.1390 ca         1 ANS      -0.038000
      3 C3          -2.5490    -0.1550     0.1350 ca         1 ANS      -0.139000
      4 C4          -1.7430    -0.0840     1.2750 ca         1 ANS      -0.091000
      5 C4A         -0.3370    -0.0040     1.1590 ca         1 ANS      -0.056000
      6 C5           0.4780     0.0650     2.3250 ca         1 ANS       0.245000
      7 C6           1.8720     0.1740     2.1890 ca         1 ANS      -0.166000
      8 C7           2.4640     0.2030     0.9230 ca         1 ANS      -0.123000
      9 C8           1.6680     0.1240    -0.2280 ca         1 ANS      -0.072000
     10 C8A          0.2580     0.0200    -0.1380 ca         1 ANS       0.051000
     11 N           -0.0590     0.0170     3.6360 nh         1 ANS      -0.772400
     12 CM1         -0.5970    -1.2500     4.1730 c3         1 ANS       0.175600
     13 CM2          0.2520     1.0790     4.6130 c3         1 ANS       0.175600
     14 S            0.1240    -0.0380    -3.0380 s6         1 ANS       1.256100
     15 O1S         -1.0760    -0.1430    -3.8820 o          1 ANS      -0.692200
     16 O2S          0.8150     1.2600    -3.0710 o          1 ANS      -0.692200
     17 O3S          0.9980    -1.2200    -3.0220 o          1 ANS      -0.692200
     18 H2          -2.6330    -0.2020    -2.0000 ha         1 ANS       0.138000
     19 H3          -3.6300    -0.2170     0.2390 ha         1 ANS       0.092000
     20 H4          -2.2260    -0.0840     2.2480 ha         1 ANS       0.106000
     21 H6           2.5020     0.2230     3.0730 ha         1 ANS       0.093000
     22 H7           3.5450     0.2830     0.8300 ha         1 ANS       0.099000
     23 H8           2.1800     0.1490    -1.1830 ha         1 ANS       0.151000
     24 HM11        -1.5860    -1.0850     4.6220 h1         1 ANS       0.026200
     25 HM12        -0.7060    -1.9940     3.3730 h1         1 ANS       0.026200
     26 HM13         0.0760    -1.6600     4.9370 h1         1 ANS       0.026200
     27 HM21         0.4560     2.0270     4.0970 h1         1 ANS       0.026200
     28 HM22        -0.5990     1.2390     5.2880 h1         1 ANS       0.026200
     29 HM23         1.1310     0.8070     5.2110 h1         1 ANS       0.026200
@<TRIPOS>BOND
     1     1     2 ar  
     2     1    10 ar  
     3     1    14 1   
     4     2     3 ar  
     5     2    18 1   
     6     3     4 ar  
     7     3    19 1   
     8     4     5 ar  
     9     4    20 1   
    10     5     6 ar  
    11     5    10 ar  
    12     6     7 ar  
    13     6    11 1   
    14     7     8 ar  
    15     7    21 1   
    16     8     9 ar  
    17     8    22 1   
    18     9    10 ar  
    19     9    23 1   
    20    11    12 1   
    21    11    13 1   
    22    12    24 1   
    23    12    25 1   
    24    12    26 1   
    25    13    27 1   
    26    13    28 1   
    27    13    29 1   
    28    14    15 1   
    29    14    16 1   
    30    14    17 1   
@<TRIPOS>SUBSTRUCTURE
     1 ANS         1 TEMP              0 ****  ****    0 ROOT
