@<TRIPOS>MOLECULE
ANS
   29    30     1     0     0
SMALL
bcc


@<TRIPOS>ATOM
      1 C1          -0.5750    -0.1270    -1.2700 ca         1 ANS      -0.207500
      2 C2          -1.9350    -0.2200    -1.1510 ca         1 ANS      -0.056000
      3 C3          -2.5520    -0.1250     0.1100 ca         1 ANS      -0.157000
      4 C4          -1.7940     0.0210     1.2360 ca         1 ANS      -0.109000
      5 C4A         -0.3830     0.0810     1.1600 ca         1 ANS      -0.056000
      6 C5           0.4090     0.2150     2.3470 ca         1 ANS       0.106600
      7 C6           1.7640     0.4020     2.2260 ca         1 ANS      -0.184000
      8 C7           2.3760     0.4170     0.9600 ca         1 ANS      -0.141000
      9 C8           1.6530     0.2230    -0.1830 ca         1 ANS      -0.090000
     10 C8A          0.2480     0.0490    -0.1170 ca         1 ANS       0.051000
     11 N           -0.2440     0.1730     3.5910 nh         1 ANS      -0.634000
     12 CM1         -0.6820    -1.1550     3.9970 c3         1 ANS       0.175600
     13 CM2          0.4060     0.8660     4.6830 c3         1 ANS       0.175600
     14 S            0.1380    -0.2420    -2.9180 s6         1 ANS       1.256100
     15 O1S         -1.0010    -0.4430    -3.8290 o          1 ANS      -0.692200
     16 O2S          0.8350     1.0370    -3.1400 o          1 ANS      -0.692200
     17 O3S          1.0470    -1.4010    -2.8670 o          1 ANS      -0.692200
     18 H2          -2.5500    -0.3520    -2.0300 ha         1 ANS       0.156000
     19 H3          -3.6310    -0.1600     0.1790 ha         1 ANS       0.110000
     20 H4          -2.2760     0.1180     2.1990 ha         1 ANS       0.124000
     21 H6           2.3850     0.5200     3.1050 ha         1 ANS       0.111000
     22 H7           3.4470     0.5600     0.8970 ha         1 ANS       0.117000
     23 H8           2.1670     0.2270    -1.1310 ha         1 ANS       0.169000
     24 HM11        -1.4050    -1.0700     4.8080 h1         1 ANS       0.026200
     25 HM12        -1.1600    -1.6820     3.1750 h1         1 ANS       0.026200
     26 HM13         0.1540    -1.7730     4.3500 h1         1 ANS       0.026200
     27 HM21         0.6880     1.8730     4.3790 h1         1 ANS       0.026200
     28 HM22        -0.2950     0.9480     5.5140 h1         1 ANS       0.026200
     29 HM23         1.3020     0.3550     5.0600 h1         1 ANS       0.026200
@<TRIPOS>BOND
     1     1     2 ar  
     2     1    10 ar  
     3     1    14 1   
     4     2     3 ar  
     5     2    18 1   
     6     3     4 ar  
     7     3    19 1   
     8     4     5 ar  
     9     4    20 1   
    10     5     6 ar  
    11     5    10 ar  
    12     6     7 ar  
    13     6    11 1   
    14     7     8 ar  
    15     7    21 1   
    16     8     9 ar  
    17     8    22 1   
    18     9    10 ar  
    19     9    23 1   
    20    11    12 1   
    21    11    13 1   
    22    12    24 1   
    23    12    25 1   
    24    12    26 1   
    25    13    27 1   
    26    13    28 1   
    27    13    29 1   
    28    14    15 1   
    29    14    16 1   
    30    14    17 1   
@<TRIPOS>SUBSTRUCTURE
     1 ANS         1 TEMP              0 ****  ****    0 ROOT
