@<TRIPOS>MOLECULE
ANU
   26    28     1     0     0
SMALL
No Charge or Current Charge


@<TRIPOS>ATOM
      1 O3          -2.8520    -2.0520     0.5160 oh         1 ANU      -0.693000
      2 C3          -1.8800    -1.0020     0.3770 c5         1 ANU       0.124300
      3 C2          -0.8160    -1.2970    -0.7250 c5         1 ANU       0.119300
      4 O2           0.3820    -1.8210    -0.0790 os         1 ANU      -0.371600
      5 C7           1.3290    -0.8530    -0.0380 cc         1 ANU       0.836500
      6 N3           2.4940    -1.0240     0.5140 nd         1 ANU      -0.704100
      7 C4           3.4010     0.0170     0.5010 c          1 ANU       0.716700
      8 O4           4.4970    -0.1260     1.0170 o          1 ANU      -0.531100
      9 C5           2.9800     1.2550    -0.1430 cc         1 ANU      -0.372200
     10 C6           1.7540     1.4450    -0.7370 cd         1 ANU       0.065000
     11 N1           0.9570     0.3030    -0.6520 na         1 ANU      -0.680400
     12 C1          -0.3780     0.1450    -1.1800 c5         1 ANU       0.422500
     13 O1          -1.2640     1.0640    -0.5160 os         1 ANU      -0.429000
     14 C8          -2.4630     0.3270    -0.1780 c5         1 ANU       0.126300
     15 C9          -3.3360     1.1260     0.8280 c3         1 ANU       0.171600
     16 O5          -3.9570     2.2610     0.1950 oh         1 ANU      -0.703000
     17 H1          -2.3950    -2.8240     0.9280 ho         1 ANU       0.522000
     18 H2          -1.3910    -0.8070     1.3440 h1         1 ANU       0.068700
     19 H3          -1.1600    -1.9370    -1.5480 h1         1 ANU       0.123700
     20 H4           3.7210     2.0440    -0.1250 ha         1 ANU       0.219000
     21 H5           1.3900     2.3500    -1.2280 h4         1 ANU       0.216000
     22 H6          -0.3730     0.2730    -2.2720 h2         1 ANU       0.102700
     23 H7          -3.0480     0.1470    -1.0910 h1         1 ANU       0.080700
     24 H8          -4.1080     0.4550     1.2300 h1         1 ANU       0.029200
     25 H9          -2.7070     1.4480     1.6690 h1         1 ANU       0.029200
     26 H10         -4.4470     2.7490     0.8980 ho         1 ANU       0.512000
@<TRIPOS>BOND
     1     1     2 1   
     2     1    17 1   
     3     2     3 1   
     4     2    14 1   
     5     2    18 1   
     6     3     4 1   
     7     3    12 1   
     8     3    19 1   
     9     4     5 1   
    10     5     6 2   
    11     5    11 1   
    12     6     7 1   
    13     7     8 2   
    14     7     9 1   
    15     9    10 2   
    16     9    20 1   
    17    10    11 1   
    18    10    21 1   
    19    11    12 1   
    20    12    13 1   
    21    12    22 1   
    22    13    14 1   
    23    14    15 1   
    24    14    23 1   
    25    15    16 1   
    26    15    24 1   
    27    15    25 1   
    28    16    26 1   
@<TRIPOS>SUBSTRUCTURE
     1 ANU         1 TEMP              0 ****  ****    0 ROOT
