@<TRIPOS>MOLECULE
ANU
   26    28     1     0     0
SMALL
bcc


@<TRIPOS>ATOM
      1 O3          -2.7580    -2.1520     0.2170 oh         1 ANU      -0.570800
      2 C3          -1.8640    -1.0810     0.2490 c5         1 ANU       0.101100
      3 C2          -0.7450    -1.2750    -0.7680 c5         1 ANU       0.096100
      4 O2           0.4550    -1.7800    -0.1740 os         1 ANU      -0.348400
      5 C7           1.3480    -0.8060    -0.0820 cc         1 ANU       0.836500
      6 N3           2.4780    -0.9640     0.4950 nd         1 ANU      -0.704100
      7 C4           3.3560     0.1070     0.5180 c          1 ANU       0.716700
      8 O4           4.4420    -0.0000     1.0660 o          1 ANU      -0.531100
      9 C5           2.9250     1.3400    -0.1370 cc         1 ANU      -0.322200
     10 C6           1.7170     1.4140    -0.7190 cd         1 ANU       0.115000
     11 N1           0.9020     0.3190    -0.6830 na         1 ANU      -0.680400
     12 C1          -0.4210     0.1540    -1.2370 c5         1 ANU       0.399300
     13 O1          -1.3450     1.0150    -0.6520 os         1 ANU      -0.382600
     14 C8          -2.4620     0.2600    -0.1890 c5         1 ANU       0.103100
     15 C9          -3.1520     0.9950     0.9310 c3         1 ANU       0.148400
     16 O5          -3.7250     2.1730     0.4260 oh         1 ANU      -0.580800
     17 H1          -3.2550    -2.1710     1.0400 ho         1 ANU       0.423000
     18 H2          -1.4160    -0.9580     1.2450 h1         1 ANU       0.068700
     19 H3          -1.0380    -1.9420    -1.5770 h1         1 ANU       0.123700
     20 H4           3.5860     2.1940    -0.1470 ha         1 ANU       0.169000
     21 H5           1.3350     2.2930    -1.2180 h4         1 ANU       0.166000
     22 H6          -0.3970     0.2820    -2.3210 h2         1 ANU       0.102700
     23 H7          -3.1680     0.0890    -1.0130 h1         1 ANU       0.080700
     24 H8          -3.9100     0.3200     1.3530 h1         1 ANU       0.029200
     25 H9          -2.4220     1.1940     1.7270 h1         1 ANU       0.029200
     26 H10         -4.1350     2.6440     1.1560 ho         1 ANU       0.413000
@<TRIPOS>BOND
     1     1     2 1   
     2     1    17 1   
     3     2     3 1   
     4     2    14 1   
     5     2    18 1   
     6     3     4 1   
     7     3    12 1   
     8     3    19 1   
     9     4     5 1   
    10     5     6 2   
    11     5    11 1   
    12     6     7 1   
    13     7     8 2   
    14     7     9 1   
    15     9    10 2   
    16     9    20 1   
    17    10    11 1   
    18    10    21 1   
    19    11    12 1   
    20    12    13 1   
    21    12    22 1   
    22    13    14 1   
    23    14    15 1   
    24    14    23 1   
    25    15    16 1   
    26    15    24 1   
    27    15    25 1   
    28    16    26 1   
@<TRIPOS>SUBSTRUCTURE
     1 ANU         1 TEMP              0 ****  ****    0 ROOT
