@<TRIPOS>MOLECULE
ANV
   39    41     1     0     0
SMALL
bcc


@<TRIPOS>ATOM
      1 C1           3.6610     1.2860    -0.0760 c3         1 ANV       0.127100
      2 O2           3.9200    -0.0980    -0.0540 os         1 ANV      -0.332900
      3 C4           5.2040    -0.5170     0.0010 ca         1 ANV       0.143100
      4 C5           5.3950    -1.8980     0.0610 ca         1 ANV      -0.188000
      5 C6           6.6760    -2.4170     0.1200 ca         1 ANV      -0.091500
      6 C7           7.7840    -1.5740     0.1210 ca         1 ANV      -0.164000
      7 C8           7.5860    -0.2040     0.0600 ca         1 ANV      -0.091500
      8 C9           6.3040     0.3350    -0.0000 ca         1 ANV      -0.188000
      9 C16          2.1830     1.4520    -0.0890 cc         1 ANV       0.255600
     10 C17          1.1950     0.5090    -0.0280 cd         1 ANV      -0.199600
     11 N18          0.0560     1.2360    -0.0590 na         1 ANV       0.065400
     12 N19          0.3240     2.5310    -0.1360 nd         1 ANV      -0.189800
     13 N20          1.6010     2.6690    -0.1540 nc         1 ANV      -0.354000
     14 C21         -1.2790     0.7770    -0.0220 cc         1 ANV       0.286900
     15 C22         -2.2520     1.5470     0.6000 cc         1 ANV      -0.218600
     16 C23         -3.5610     1.0870     0.6230 cd         1 ANV      -0.073500
     17 C24         -3.8990    -0.1300     0.0500 cd         1 ANV      -0.643000
     18 C25         -2.9090    -0.8930    -0.5630 cd         1 ANV      -0.073500
     19 C26         -1.6000    -0.4410    -0.6090 cc         1 ANV      -0.218600
     20 S27         -5.7460    -0.5870     0.1850 s6         1 ANV       1.166400
     21 O28         -7.4620    -1.2150     0.0770 oh         1 ANV      -0.578200
     22 O29         -5.8630    -0.6300    -1.4550 oh         1 ANV      -0.578200
     23 N30         -5.3150    -2.1080     0.7300 n8         1 ANV      -0.781400
     24 H1           4.0870     1.7830     0.8030 h1         1 ANV       0.054700
     25 H11          4.0990     1.7610    -0.9620 h1         1 ANV       0.054700
     26 H5           4.5350    -2.5560     0.0620 ha         1 ANV       0.139000
     27 H6           6.8100    -3.4900     0.1660 ha         1 ANV       0.131000
     28 H7           8.7840    -1.9820     0.1690 ha         1 ANV       0.134000
     29 H8           8.4340     0.4680     0.0590 ha         1 ANV       0.131000
     30 H9           6.1910     1.4090    -0.0470 ha         1 ANV       0.139000
     31 H17          1.2080    -0.5630     0.0540 h4         1 ANV       0.198000
     32 H22         -1.9930     2.4880     1.0650 ha         1 ANV       0.150000
     33 H23         -4.3220     1.6880     1.1090 ha         1 ANV       0.133500
     34 H25         -3.1460    -1.8480    -1.0170 ha         1 ANV       0.133500
     35 H26         -0.8430    -1.0290    -1.1110 ha         1 ANV       0.150000
     36 H2          -7.9090    -0.7540     0.7970 ho         1 ANV       0.419000
     37 H3          -5.0190    -0.3630    -1.8450 ho         1 ANV       0.419000
     38 HN30        -4.4370    -2.1260     1.2300 hn         1 ANV       0.267700
     39 HN31        -6.0680    -2.5490     1.2390 hn         1 ANV       0.267700
@<TRIPOS>BOND
     1     1     2 1   
     2     1     9 1   
     3     1    24 1   
     4     1    25 1   
     5     2     3 1   
     6     3     4 ar  
     7     3     8 ar  
     8     4     5 ar  
     9     4    26 1   
    10     5     6 ar  
    11     5    27 1   
    12     6     7 ar  
    13     6    28 1   
    14     7     8 ar  
    15     7    29 1   
    16     8    30 1   
    17     9    10 2   
    18     9    13 1   
    19    10    11 1   
    20    10    31 1   
    21    11    12 1   
    22    11    14 2   
    23    12    13 2   
    24    14    15 1   
    25    14    19 1   
    26    15    16 2   
    27    15    32 1   
    28    16    17 1   
    29    16    33 1   
    30    17    18 1   
    31    17    20 2   
    32    18    19 2   
    33    18    34 1   
    34    19    35 1   
    35    20    21 1   
    36    20    22 1   
    37    20    23 2   
    38    21    36 1   
    39    22    37 1   
    40    23    38 1   
    41    23    39 1   
@<TRIPOS>SUBSTRUCTURE
     1 ANV         1 TEMP              0 ****  ****    0 ROOT
