@<TRIPOS>MOLECULE
ANV
   39    41     1     0     0
SMALL
No Charge or Current Charge


@<TRIPOS>ATOM
      1 C1           3.5420     1.1690    -0.3090 c3         1 ANV       0.150300
      2 O2           3.9550    -0.0950     0.2500 os         1 ANV      -0.356100
      3 C4           5.2480    -0.5610     0.1390 ca         1 ANV       0.143100
      4 C5           5.5480    -1.8060     0.7170 ca         1 ANV      -0.170000
      5 C6           6.8480    -2.3340     0.6360 ca         1 ANV      -0.073500
      6 C7           7.8560    -1.6130    -0.0260 ca         1 ANV      -0.146000
      7 C8           7.5650    -0.3670    -0.6070 ca         1 ANV      -0.073500
      8 C9           6.2640     0.1610    -0.5270 ca         1 ANV      -0.170000
      9 C16          2.0740     1.3790    -0.0250 cc         1 ANV       0.190300
     10 C17          1.0730     0.4590    -0.0650 cd         1 ANV      -0.167000
     11 N18         -0.0640     1.1790     0.2710 na         1 ANV       0.116100
     12 N19          0.2910     2.4950     0.4930 nd         1 ANV      -0.189800
     13 N20          1.5810     2.6050     0.3120 nc         1 ANV      -0.354000
     14 C21         -1.3590     0.6250     0.3580 cc         1 ANV       0.286900
     15 C22         -2.4590     1.4830     0.7060 cc         1 ANV      -0.268600
     16 C23         -3.7430     0.9980     0.8060 cd         1 ANV      -0.123500
     17 C24         -3.9710    -0.4050     0.5420 cd         1 ANV      -0.643000
     18 C25         -2.8810    -1.2940     0.2060 cd         1 ANV      -0.123500
     19 C26         -1.6090    -0.7730     0.1160 cc         1 ANV      -0.268600
     20 S27         -5.6430    -1.0670     0.6700 s6         1 ANV       1.166400
     21 O28         -6.0010    -2.4000    -0.1180 oh         1 ANV      -0.617200
     22 O29         -6.8730    -0.0780     0.4900 oh         1 ANV      -0.617200
     23 N30         -5.5350    -0.6190    -0.8870 n8         1 ANV      -0.882000
     24 H1           4.1180     1.9930     0.1320 h1         1 ANV       0.054700
     25 H11          3.6950     1.1810    -1.3960 h1         1 ANV       0.054700
     26 H5           4.7680    -2.3630     1.2290 ha         1 ANV       0.121000
     27 H6           7.0740    -3.2990     1.0860 ha         1 ANV       0.113000
     28 H7           8.8630    -2.0200    -0.0900 ha         1 ANV       0.116000
     29 H8           8.3470     0.1890    -1.1200 ha         1 ANV       0.113000
     30 H9           6.0650     1.1260    -0.9840 ha         1 ANV       0.121000
     31 H17          1.1120    -0.5950    -0.2980 h4         1 ANV       0.180000
     32 H22         -2.2680     2.5350     0.8960 ha         1 ANV       0.200000
     33 H23         -4.5590     1.6700     1.0810 ha         1 ANV       0.183500
     34 H25         -3.0450    -2.3590     0.0270 ha         1 ANV       0.183500
     35 H26         -0.7940    -1.4380    -0.1380 ha         1 ANV       0.200000
     36 H2          -6.0430    -2.0020    -1.0050 ho         1 ANV       0.458000
     37 H3          -6.8030     0.0200    -0.4750 ho         1 ANV       0.458000
     38 HN30        -5.1750     0.3340    -0.7860 hn         1 ANV       0.318000
     39 HN31        -4.6510    -1.0620    -1.1520 hn         1 ANV       0.318000
@<TRIPOS>BOND
     1     1     2 1   
     2     1     9 1   
     3     1    24 1   
     4     1    25 1   
     5     2     3 1   
     6     3     4 ar  
     7     3     8 ar  
     8     4     5 ar  
     9     4    26 1   
    10     5     6 ar  
    11     5    27 1   
    12     6     7 ar  
    13     6    28 1   
    14     7     8 ar  
    15     7    29 1   
    16     8    30 1   
    17     9    10 2   
    18     9    13 1   
    19    10    11 1   
    20    10    31 1   
    21    11    12 1   
    22    11    14 2   
    23    12    13 2   
    24    14    15 1   
    25    14    19 1   
    26    15    16 2   
    27    15    32 1   
    28    16    17 1   
    29    16    33 1   
    30    17    18 1   
    31    17    20 2   
    32    18    19 2   
    33    18    34 1   
    34    19    35 1   
    35    20    21 1   
    36    20    22 1   
    37    20    23 2   
    38    21    36 1   
    39    22    37 1   
    40    23    38 1   
    41    23    39 1   
@<TRIPOS>SUBSTRUCTURE
     1 ANV         1 TEMP              0 ****  ****    0 ROOT
