@<TRIPOS>MOLECULE
ANW
   35    37     1     0     0
SMALL
bcc


@<TRIPOS>ATOM
      1 NAA          2.0370    -1.7750    -0.0050 nb         1 ANW      -0.845000
      2 NAB          4.2990    -1.9950     0.0630 nv         1 ANW      -0.960500
      3 CAC         -6.0090     0.4370    -1.4630 c3         1 ANW      -0.083100
      4 CAD         -5.2530     0.7850    -0.1810 c3         1 ANW      -0.008400
      5 CAE         -6.0710     0.4170     1.0570 c3         1 ANW      -0.083100
      6 CAF         -3.8880     0.1400    -0.1510 ca         1 ANW      -0.132300
      7 CAG         -2.7380     0.9030    -0.1130 ca         1 ANW      -0.046000
      8 CAH         -1.4660     0.3210    -0.0850 ca         1 ANW      -0.222600
      9 CAI         -1.3680    -1.0660    -0.0950 ca         1 ANW       0.177100
     10 CAJ         -2.5100    -1.8610    -0.1340 ca         1 ANW      -0.171000
     11 CAK         -3.7490    -1.2560    -0.1610 ca         1 ANW      -0.084000
     12 CAL          0.9720    -1.0170    -0.0290 ca         1 ANW       0.716600
     13 CAM          3.2420    -1.1910     0.0350 ca         1 ANW       0.764200
     14 CAN          3.4020     0.2360     0.0450 ca         1 ANW      -0.359900
     15 CAO          2.2520     0.9760     0.0220 ca         1 ANW       0.032000
     16 CAP          0.9810     0.3790    -0.0160 ca         1 ANW      -0.447900
     17 CAQ         -0.2480     1.1430    -0.0430 c          1 ANW       0.622300
     18 CAR          4.7530     0.9310     0.0820 c          1 ANW       0.945200
     19 OAS         -0.1770    -1.7120    -0.0690 os         1 ANW      -0.342400
     20 OAT         -0.2840     2.3670    -0.0320 o          1 ANW      -0.571100
     21 OAU          5.7740     0.2030     0.1120 o          1 ANW      -0.823300
     22 OAV          4.7410     2.1720     0.0790 o          1 ANW      -0.823300
     23 HNAB         4.1800    -2.9930     0.0550 hn         1 ANW       0.462300
     24 HNAA         5.2110    -1.5510     0.0940 hn         1 ANW       0.462300
     25 HAC         -6.9650     0.9610    -1.4950 hc         1 ANW       0.030700
     26 HACA        -5.4410     0.7230    -2.3490 hc         1 ANW       0.030700
     27 HACB        -6.2160    -0.6330    -1.5280 hc         1 ANW       0.030700
     28 HAD         -5.0990     1.8690    -0.1680 hc         1 ANW       0.050700
     29 HAE         -6.2730    -0.6550     1.0980 hc         1 ANW       0.030700
     30 HAEA        -5.5520     0.6960     1.9740 hc         1 ANW       0.030700
     31 HAEB        -7.0320     0.9320     1.0450 hc         1 ANW       0.030700
     32 HAG         -2.8100     1.9840    -0.1050 ha         1 ANW       0.148000
     33 HAJ         -2.4180    -2.9390    -0.1420 ha         1 ANW       0.145000
     34 HAK         -4.6280    -1.8890    -0.1900 ha         1 ANW       0.122000
     35 HAO          2.3220     2.0560     0.0300 ha         1 ANW       0.172000
@<TRIPOS>BOND
     1     1    12 ar  
     2     1    13 ar  
     3     2    13 1   
     4     2    23 1   
     5     2    24 1   
     6     3     4 1   
     7     3    25 1   
     8     3    26 1   
     9     3    27 1   
    10     4     5 1   
    11     4     6 1   
    12     4    28 1   
    13     5    29 1   
    14     5    30 1   
    15     5    31 1   
    16     6     7 ar  
    17     6    11 ar  
    18     7     8 ar  
    19     7    32 1   
    20     8     9 ar  
    21     8    17 1   
    22     9    10 ar  
    23     9    19 1   
    24    10    11 ar  
    25    10    33 1   
    26    11    34 1   
    27    12    16 ar  
    28    12    19 1   
    29    13    14 ar  
    30    14    15 ar  
    31    14    18 1   
    32    15    16 ar  
    33    15    35 1   
    34    16    17 1   
    35    17    20 2   
    36    18    21 1   
    37    18    22 1   
@<TRIPOS>SUBSTRUCTURE
     1 ANW         1 TEMP              0 ****  ****    0 ROOT
