@<TRIPOS>MOLECULE
ANW
   35    37     1     0     0
SMALL
No Charge or Current Charge


@<TRIPOS>ATOM
      1 NAA          2.1680    -1.7580    -0.0940 nb         1 ANW      -0.845000
      2 NAB          4.2930    -1.9930    -0.0810 nv         1 ANW      -1.070900
      3 CAC         -6.0600     0.4700    -1.4570 c3         1 ANW      -0.083100
      4 CAD         -5.2900     0.7760    -0.1540 c3         1 ANW      -0.008400
      5 CAE         -6.1090     0.3910     1.0980 c3         1 ANW      -0.083100
      6 CAF         -3.9110     0.1100    -0.1480 ca         1 ANW      -0.132300
      7 CAG         -2.7450     0.9020    -0.1010 ca         1 ANW      -0.028000
      8 CAH         -1.4690     0.2980    -0.0950 ca         1 ANW      -0.222600
      9 CAI         -1.3630    -1.0970    -0.1360 ca         1 ANW       0.177100
     10 CAJ         -2.5170    -1.8920    -0.1830 ca         1 ANW      -0.153000
     11 CAK         -3.7880    -1.2940    -0.1890 ca         1 ANW      -0.066000
     12 CAL          1.0450    -1.0210    -0.0900 ca         1 ANW       0.651300
     13 CAM          3.3120    -1.1070    -0.0580 ca         1 ANW       0.698900
     14 CAN          3.4660     0.2730     0.0040 ca         1 ANW      -0.294600
     15 CAO          2.2980     1.0490     0.0020 ca         1 ANW       0.050000
     16 CAP          1.0640     0.3760    -0.0460 ca         1 ANW      -0.382600
     17 CAQ         -0.2210     1.1120    -0.0460 c          1 ANW       0.622300
     18 CAR          4.8120     0.9090     0.0710 c          1 ANW       0.734600
     19 OAS         -0.1380    -1.7110    -0.1320 os         1 ANW      -0.342400
     20 OAT         -0.2500     2.3360    -0.0070 o          1 ANW      -0.571100
     21 OAU          5.7250     0.3010     0.6090 o          1 ANW      -0.718000
     22 OAV          4.9280     2.0420    -0.3700 o          1 ANW      -0.718000
     23 HNAB         4.0010    -2.9080     0.2340 hn         1 ANW       0.517500
     24 HNAA         5.1670    -1.6380     0.3020 hn         1 ANW       0.517500
     25 HAC         -7.0090     1.0180    -1.4820 hc         1 ANW       0.030700
     26 HACA        -5.4700     0.7710    -2.3310 hc         1 ANW       0.030700
     27 HACB        -6.2820    -0.6010    -1.5450 hc         1 ANW       0.030700
     28 HAD         -5.1580     1.8650    -0.1180 hc         1 ANW       0.050700
     29 HAE         -6.3330    -0.6830     1.1110 hc         1 ANW       0.030700
     30 HAEA        -5.5530     0.6370     2.0110 hc         1 ANW       0.030700
     31 HAEB        -7.0590     0.9380     1.1210 hc         1 ANW       0.030700
     32 HAG         -2.8310     1.9870    -0.0690 ha         1 ANW       0.130000
     33 HAJ         -2.4260    -2.9740    -0.2150 ha         1 ANW       0.127000
     34 HAK         -4.6740    -1.9240    -0.2250 ha         1 ANW       0.104000
     35 HAO          2.3480     2.1370     0.0460 ha         1 ANW       0.154000
@<TRIPOS>BOND
     1     1    12 ar  
     2     1    13 ar  
     3     2    13 1   
     4     2    23 1   
     5     2    24 1   
     6     3     4 1   
     7     3    25 1   
     8     3    26 1   
     9     3    27 1   
    10     4     5 1   
    11     4     6 1   
    12     4    28 1   
    13     5    29 1   
    14     5    30 1   
    15     5    31 1   
    16     6     7 ar  
    17     6    11 ar  
    18     7     8 ar  
    19     7    32 1   
    20     8     9 ar  
    21     8    17 1   
    22     9    10 ar  
    23     9    19 1   
    24    10    11 ar  
    25    10    33 1   
    26    11    34 1   
    27    12    16 ar  
    28    12    19 1   
    29    13    14 ar  
    30    14    15 ar  
    31    14    18 1   
    32    15    16 ar  
    33    15    35 1   
    34    16    17 1   
    35    17    20 2   
    36    18    21 1   
    37    18    22 1   
@<TRIPOS>SUBSTRUCTURE
     1 ANW         1 TEMP              0 ****  ****    0 ROOT
