@<TRIPOS>MOLECULE
ANX
   17    17     1     0     0
SMALL
No Charge or Current Charge


@<TRIPOS>ATOM
      1 O1           1.8560    -1.1420     4.0430 oh         1 ANX      -0.506100
      2 C1           1.8230    -1.0880     2.6800 ca         1 ANX       0.235100
      3 C2           0.7470    -0.4980     1.9680 ca         1 ANX      -0.271200
      4 N2          -0.4400     0.1120     2.6540 no         1 ANX       0.703200
      5 O21         -1.3320     0.6040     1.9530 o          1 ANX      -0.396000
      6 O22         -0.4770     0.0990     3.8920 o          1 ANX      -0.396000
      7 C3           0.7990    -0.4880     0.5510 ca         1 ANX      -0.015000
      8 C4           1.8900    -1.0480    -0.1350 ca         1 ANX      -0.113000
      9 O41          4.1270    -2.2000    -1.3950 o          1 ANX      -0.377500
     10 O42          5.0430    -2.7370     0.5130 o          1 ANX      -0.377500
     11 C5           2.9610    -1.6350     0.5740 ca         1 ANX      -0.089200
     12 C6           2.9090    -1.6450     1.9870 ca         1 ANX      -0.119000
     13 H5           1.0330    -0.7150     4.3770 ho         1 ANX       0.525000
     14 H3          -0.0050    -0.0460    -0.0360 ha         1 ANX       0.162000
     15 H4           1.8930    -1.0200    -1.2230 ha         1 ANX       0.168000
     16 H6           3.7170    -2.0890     2.5650 ha         1 ANX       0.179000
     17 N1           4.1300    -2.2350    -0.1560 no         1 ANX       0.687200
@<TRIPOS>BOND
     1     1     2 1   
     2     1    13 1   
     3     2     3 ar  
     4     2    12 ar  
     5     3     4 1   
     6     3     7 ar  
     7     4     5 1   
     8     4     6 1   
     9     7     8 ar  
    10     7    14 1   
    11     8    11 ar  
    12     8    15 1   
    13     9    17 1   
    14    10    17 1   
    15    11    12 ar  
    16    11    17 1   
    17    12    16 1   
@<TRIPOS>SUBSTRUCTURE
     1 ANX         1 TEMP              0 ****  ****    0 ROOT
