@<TRIPOS>MOLECULE
ANX
   17    17     1     0     0
SMALL
bcc


@<TRIPOS>ATOM
      1 O1           1.8840    -1.1400     4.0030 oh         1 ANX      -0.467100
      2 C1           1.8230    -1.0810     2.6860 ca         1 ANX       0.235100
      3 C2           0.7780    -0.5150     1.9340 ca         1 ANX      -0.271200
      4 N2          -0.3680     0.0710     2.5890 no         1 ANX       0.323200
      5 O21         -1.2460     0.5390     1.9160 o          1 ANX      -0.206000
      6 O22         -0.3940     0.0670     3.8090 o          1 ANX      -0.206000
      7 C3           0.8130    -0.5000     0.5410 ca         1 ANX      -0.033000
      8 C4           1.8770    -1.0420    -0.1390 ca         1 ANX      -0.131000
      9 O41          4.0700    -2.1030    -1.2940 o          1 ANX      -0.187500
     10 O42          4.8990    -2.7370     0.5680 o          1 ANX      -0.187500
     11 C5           2.9050    -1.6050     0.6100 ca         1 ANX      -0.089200
     12 C6           2.8990    -1.6350     1.9830 ca         1 ANX      -0.137000
     13 H5           1.0830    -0.7320     4.3830 ho         1 ANX       0.486000
     14 H3          -0.0010    -0.0600    -0.0150 ha         1 ANX       0.180000
     15 H4           1.8960    -1.0250    -1.2170 ha         1 ANX       0.186000
     16 H6           3.7080    -2.0780     2.5480 ha         1 ANX       0.197000
     17 N1           4.0480    -2.1950    -0.0930 no         1 ANX       0.307200
@<TRIPOS>BOND
     1     1     2 1   
     2     1    13 1   
     3     2     3 ar  
     4     2    12 ar  
     5     3     4 1   
     6     3     7 ar  
     7     4     5 1   
     8     4     6 1   
     9     7     8 ar  
    10     7    14 1   
    11     8    11 ar  
    12     8    15 1   
    13     9    17 1   
    14    10    17 1   
    15    11    12 ar  
    16    11    17 1   
    17    12    16 1   
@<TRIPOS>SUBSTRUCTURE
     1 ANX         1 TEMP              0 ****  ****    0 ROOT
