@<TRIPOS>MOLECULE
AO0
   44    46     1     0     0
SMALL
No Charge or Current Charge


@<TRIPOS>ATOM
      1 C12          8.2810    15.4240    29.2140 ca         1 AO0      -0.123000
      2 C14          8.7130    16.8500    31.1430 ca         1 AO0      -0.115500
      3 C13          8.8250    15.6060    30.4980 ca         1 AO0      -0.094500
      4 C11          7.6260    16.4960    28.5670 ca         1 AO0       0.130100
      5 C04          5.9230    12.8520    26.2340 ca         1 AO0       0.130100
      6 C05          6.7060    12.2440    25.2290 ca         1 AO0      -0.123000
      7 C06          6.5130    10.8870    24.9120 ca         1 AO0      -0.094500
      8 C07          5.5380    10.1360    25.5900 ca         1 AO0      -0.115500
      9 C08          4.7490    10.7420    26.5820 ca         1 AO0      -0.094500
     10 C09          4.9410    12.0980    26.8990 ca         1 AO0      -0.123000
     11 C15          8.0530    17.9140    30.5060 ca         1 AO0      -0.094500
     12 C16          7.5090    17.7340    29.2220 ca         1 AO0      -0.123000
     13 C18          5.7140    16.6140    24.3880 ca         1 AO0       0.305000
     14 C19          4.5640    16.7440    25.1860 ca         1 AO0      -0.126000
     15 C20          3.4650    17.4880    24.7270 ca         1 AO0      -0.095000
     16 C21          3.5080    18.1060    23.4670 ca         1 AO0      -0.084000
     17 C22          4.6530    17.9890    22.6450 ca         1 AO0      -0.150600
     18 C23          4.6750    18.6660    21.2850 c          1 AO0       0.582700
     19 C24          5.9140    18.5390    20.3950 c3         1 AO0      -0.196100
     20 C26          5.7520    17.2340    23.1260 ca         1 AO0      -0.124000
     21 N17          6.8180    15.8850    24.8070 nu         1 AO0      -1.020300
     22 O01          8.6210    14.6120    26.1370 o          1 AO0      -0.571000
     23 O03          6.0560    14.1750    26.5830 os         1 AO0      -0.493000
     24 O10          7.0650    16.3800    27.3170 os         1 AO0      -0.493000
     25 O25          3.7140    19.3140    20.8890 o          1 AO0      -0.519100
     26 P02          7.2580    15.1970    26.2360 p5         1 AO0       1.380100
     27 H1           8.3690    14.4480    28.7470 ha         1 AO0       0.134750
     28 H2           9.1340    16.9880    32.1370 ha         1 AO0       0.117500
     29 H3           9.3290    14.7810    30.9960 ha         1 AO0       0.119000
     30 H4           7.4540    12.8050    24.6770 ha         1 AO0       0.134750
     31 H5           7.1170    10.4180    24.1380 ha         1 AO0       0.119000
     32 H6           5.3900     9.0860    25.3430 ha         1 AO0       0.117500
     33 H7           3.9900    10.1630    27.1040 ha         1 AO0       0.119000
     34 H8           4.3300    12.5680    27.6650 ha         1 AO0       0.134750
     35 H9           7.9620    18.8760    31.0060 ha         1 AO0       0.119000
     36 H10          6.9960    18.5560    28.7300 ha         1 AO0       0.134750
     37 H11          4.5110    16.2730    26.1620 ha         1 AO0       0.133000
     38 H12          2.5780    17.5850    25.3490 ha         1 AO0       0.122000
     39 H13          2.6440    18.6780    23.1320 ha         1 AO0       0.138000
     40 H14          5.8050    19.0720    19.4440 hc         1 AO0       0.062367
     41 H15          6.7910    18.8880    20.9510 hc         1 AO0       0.062367
     42 H16          6.1340    17.4780    20.2370 hc         1 AO0       0.062367
     43 H17          6.6480    17.1180    22.5250 ha         1 AO0       0.116000
     44 H18          7.6610    15.9540    24.2540 hn         1 AO0       0.501000
@<TRIPOS>BOND
     1     1     3 ar  
     2     1     4 ar  
     3     1    27 1   
     4     2     3 ar  
     5     2    11 ar  
     6     2    28 1   
     7     3    29 1   
     8     4    12 ar  
     9     4    24 1   
    10     5     6 ar  
    11     5    10 ar  
    12     5    23 1   
    13     6     7 ar  
    14     6    30 1   
    15     7     8 ar  
    16     7    31 1   
    17     8     9 ar  
    18     8    32 1   
    19     9    10 ar  
    20     9    33 1   
    21    10    34 1   
    22    11    12 ar  
    23    11    35 1   
    24    12    36 1   
    25    13    14 ar  
    26    13    20 ar  
    27    13    21 1   
    28    14    15 ar  
    29    14    37 1   
    30    15    16 ar  
    31    15    38 1   
    32    16    17 ar  
    33    16    39 1   
    34    17    18 1   
    35    17    20 ar  
    36    18    19 1   
    37    18    25 2   
    38    19    40 1   
    39    19    41 1   
    40    19    42 1   
    41    20    43 1   
    42    21    26 1   
    43    21    44 1   
    44    22    26 2   
    45    23    26 1   
    46    24    26 1   
@<TRIPOS>SUBSTRUCTURE
     1 AO0         1 TEMP              0 ****  ****    0 ROOT
