@<TRIPOS>MOLECULE
AO0
   44    46     1     0     0
SMALL
abcg2


@<TRIPOS>ATOM
      1 C12          8.3060    15.5140    28.1520 ca         1 AO0      -0.123000
      2 C14          8.4480    17.8260    28.8210 ca         1 AO0      -0.115500
      3 C13          8.9600    16.5350    28.8290 ca         1 AO0      -0.094500
      4 C11          7.1340    15.8030    27.4690 ca         1 AO0       0.130100
      5 C04          5.7210    11.9870    25.8390 ca         1 AO0       0.130100
      6 C05          6.5270    10.9040    25.5240 ca         1 AO0      -0.123000
      7 C06          6.3780     9.7250    26.2400 ca         1 AO0      -0.094500
      8 C07          5.4370     9.6340    27.2570 ca         1 AO0      -0.115500
      9 C08          4.6380    10.7290    27.5580 ca         1 AO0      -0.094500
     10 C09          4.7770    11.9160    26.8510 ca         1 AO0      -0.123000
     11 C15          7.2700    18.0950    28.1380 ca         1 AO0      -0.094500
     12 C16          6.6060    17.0840    27.4570 ca         1 AO0      -0.123000
     13 C18          5.7600    16.3530    24.2090 ca         1 AO0       0.305000
     14 C19          4.4420    16.0580    24.5440 ca         1 AO0      -0.126000
     15 C20          3.4740    17.0510    24.4710 ca         1 AO0      -0.095000
     16 C21          3.7950    18.3280    24.0500 ca         1 AO0      -0.084000
     17 C22          5.1110    18.6270    23.6960 ca         1 AO0      -0.150600
     18 C23          5.4480    20.0130    23.2530 c          1 AO0       0.582700
     19 C24          6.8710    20.3190    22.8780 c3         1 AO0      -0.196100
     20 C26          6.0840    17.6390    23.7840 ca         1 AO0      -0.124000
     21 N17          6.7840    15.3960    24.2840 nu         1 AO0      -1.020300
     22 O01          8.3700    13.6720    25.4310 o          1 AO0      -0.571000
     23 O03          5.8290    13.1550    25.1030 os         1 AO0      -0.493000
     24 O10          6.4450    14.7960    26.8150 os         1 AO0      -0.493000
     25 O25          4.5860    20.8640    23.2050 o          1 AO0      -0.519100
     26 P02          6.9990    14.2130    25.4140 p5         1 AO0       1.380100
     27 H1           8.6980    14.5060    28.1670 ha         1 AO0       0.134750
     28 H2           8.9630    18.6170    29.3490 ha         1 AO0       0.117500
     29 H3           9.8740    16.3160    29.3640 ha         1 AO0       0.119000
     30 H4           7.2520    10.9770    24.7240 ha         1 AO0       0.134750
     31 H5           7.0020     8.8740    25.9980 ha         1 AO0       0.119000
     32 H6           5.3250     8.7110    27.8110 ha         1 AO0       0.117500
     33 H7           3.9020    10.6640    28.3480 ha         1 AO0       0.119000
     34 H8           4.1540    12.7710    27.0770 ha         1 AO0       0.134750
     35 H9           6.8620    19.0970    28.1300 ha         1 AO0       0.119000
     36 H10          5.6840    17.2900    26.9290 ha         1 AO0       0.134750
     37 H11          4.1540    15.0630    24.8520 ha         1 AO0       0.133000
     38 H12          2.4530    16.8110    24.7370 ha         1 AO0       0.122000
     39 H13          3.0290    19.0890    23.9910 ha         1 AO0       0.138000
     40 H14          6.9630    21.3580    22.5700 hc         1 AO0       0.062367
     41 H15          7.5430    20.1420    23.7190 hc         1 AO0       0.062367
     42 H16          7.2080    19.6800    22.0600 hc         1 AO0       0.062367
     43 H17          7.1160    17.8560    23.5360 ha         1 AO0       0.116000
     44 H18          7.6150    15.6050    23.7470 hn         1 AO0       0.501000
@<TRIPOS>BOND
     1     1     3 ar  
     2     1     4 ar  
     3     1    27 1   
     4     2     3 ar  
     5     2    11 ar  
     6     2    28 1   
     7     3    29 1   
     8     4    12 ar  
     9     4    24 1   
    10     5     6 ar  
    11     5    10 ar  
    12     5    23 1   
    13     6     7 ar  
    14     6    30 1   
    15     7     8 ar  
    16     7    31 1   
    17     8     9 ar  
    18     8    32 1   
    19     9    10 ar  
    20     9    33 1   
    21    10    34 1   
    22    11    12 ar  
    23    11    35 1   
    24    12    36 1   
    25    13    14 ar  
    26    13    20 ar  
    27    13    21 1   
    28    14    15 ar  
    29    14    37 1   
    30    15    16 ar  
    31    15    38 1   
    32    16    17 ar  
    33    16    39 1   
    34    17    18 1   
    35    17    20 ar  
    36    18    19 1   
    37    18    25 2   
    38    19    40 1   
    39    19    41 1   
    40    19    42 1   
    41    20    43 1   
    42    21    26 1   
    43    21    44 1   
    44    22    26 2   
    45    23    26 1   
    46    24    26 1   
@<TRIPOS>SUBSTRUCTURE
     1 AO0         1 TEMP              0 ****  ****    0 ROOT
