@<TRIPOS>MOLECULE
AO1
   50    51     1     0     0
SMALL
No Charge or Current Charge


@<TRIPOS>ATOM
      1 C1           7.9990    -2.5700    -0.0400 c3         1 AO1      -0.080100
      2 C2           6.5210    -2.2710    -0.3360 c3         1 AO1       0.067600
      3 S3           6.0280    -0.6530     0.4100 ss         1 AO1      -0.437000
      4 C4           4.2550    -0.5930    -0.1080 c3         1 AO1       0.056600
      5 C5           3.5860     0.6950     0.4190 c3         1 AO1      -0.093400
      6 C6           2.0640     0.7980     0.1210 c3         1 AO1       0.151500
      7 C8           1.3830     2.0680     0.7580 c3         1 AO1       0.100300
      8 C9          -0.1820     2.0700     0.6570 c          1 AO1       0.556100
      9 N10         -0.7310     1.4210    -0.4230 ns         1 AO1      -0.491900
     10 C11         -2.1600     1.2550    -0.6910 c3         1 AO1       0.161000
     11 C12         -2.6820    -0.1290    -0.2610 ca         1 AO1      -0.079300
     12 O13         -0.8780     2.5900     1.5230 o          1 AO1      -0.619100
     13 C14         -2.4470     1.5250    -2.1790 c3         1 AO1      -0.101100
     14 C15         -1.8120    -1.2430    -0.3270 ca         1 AO1      -0.102000
     15 C16         -2.2370    -2.5190     0.0660 ca         1 AO1      -0.107000
     16 C17         -3.5440    -2.7120     0.5270 ca         1 AO1      -0.096000
     17 C18         -4.4380    -1.6290     0.5820 ca         1 AO1      -0.036000
     18 C19         -4.0220    -0.3310     0.1840 ca         1 AO1      -0.019000
     19 C20         -5.7530    -1.8530     1.0330 ca         1 AO1      -0.098000
     20 C21         -6.6730    -0.7960     1.0870 ca         1 AO1      -0.108000
     21 C22         -6.2810     0.4890     0.6850 ca         1 AO1      -0.106000
     22 C23         -4.9710     0.7220     0.2360 ca         1 AO1      -0.101000
     23 O24          1.7870     2.2370     2.1430 oh         1 AO1      -0.659000
     24 N7           1.8520     0.7430    -1.3500 n8         1 AO1      -1.037200
     25 H11A         8.1740    -2.6220     1.0410 hc         1 AO1       0.045367
     26 H12          8.2900    -3.5300    -0.4830 hc         1 AO1       0.045367
     27 H13          8.6430    -1.7880    -0.4600 hc         1 AO1       0.045367
     28 H21A         6.3600    -2.2320    -1.4210 h1         1 AO1       0.053200
     29 H22A         5.8910    -3.0680     0.0810 h1         1 AO1       0.053200
     30 H41          4.2080    -0.6300    -1.2040 h1         1 AO1       0.049700
     31 H42          3.7360    -1.4730     0.2950 h1         1 AO1       0.049700
     32 H51          3.7430     0.7240     1.5030 hc         1 AO1       0.074700
     33 H52          4.1020     1.5690     0.0050 hc         1 AO1       0.074700
     34 H6           1.5760    -0.0840     0.5620 h1         1 AO1       0.066700
     35 H8           1.7150     2.9390     0.1780 h1         1 AO1       0.060700
     36 H10         -0.0530     1.0210    -1.0720 hn         1 AO1       0.356500
     37 H11         -2.6760     2.0280    -0.1100 h1         1 AO1       0.079700
     38 H141        -3.5220     1.4570    -2.3820 hc         1 AO1       0.045033
     39 H142        -2.1090     2.5290    -2.4620 hc         1 AO1       0.045033
     40 H143        -1.9320     0.7940    -2.8130 hc         1 AO1       0.045033
     41 H15         -0.7920    -1.1290    -0.6870 ha         1 AO1       0.107000
     42 H16         -1.5500    -3.3610     0.0130 ha         1 AO1       0.111000
     43 H17         -3.8650    -3.7060     0.8300 ha         1 AO1       0.113000
     44 H20         -6.0660    -2.8480     1.3400 ha         1 AO1       0.112000
     45 H21         -7.6890    -0.9730     1.4340 ha         1 AO1       0.113000
     46 H22         -6.9960     1.3080     0.7190 ha         1 AO1       0.112000
     47 H23         -4.7220     1.7310    -0.0760 ha         1 AO1       0.112000
     48 H24          1.0120     2.6450     2.5990 ho         1 AO1       0.483000
     49 HN71         2.4540     1.4430    -1.8040 hn         1 AO1       0.411500
     50 HN72         2.2190    -0.1450    -1.7130 hn         1 AO1       0.411500
@<TRIPOS>BOND
     1     1     2 1   
     2     1    25 1   
     3     1    26 1   
     4     1    27 1   
     5     2     3 1   
     6     2    28 1   
     7     2    29 1   
     8     3     4 1   
     9     4     5 1   
    10     4    30 1   
    11     4    31 1   
    12     5     6 1   
    13     5    32 1   
    14     5    33 1   
    15     6     7 1   
    16     6    24 1   
    17     6    34 1   
    18     7     8 1   
    19     7    23 1   
    20     7    35 1   
    21     8     9 1   
    22     8    12 2   
    23     9    10 1   
    24     9    36 1   
    25    10    11 1   
    26    10    13 1   
    27    10    37 1   
    28    11    14 ar  
    29    11    18 ar  
    30    13    38 1   
    31    13    39 1   
    32    13    40 1   
    33    14    15 ar  
    34    14    41 1   
    35    15    16 ar  
    36    15    42 1   
    37    16    17 ar  
    38    16    43 1   
    39    17    18 ar  
    40    17    19 ar  
    41    18    22 ar  
    42    19    20 ar  
    43    19    44 1   
    44    20    21 ar  
    45    20    45 1   
    46    21    22 ar  
    47    21    46 1   
    48    22    47 1   
    49    23    48 1   
    50    24    49 1   
    51    24    50 1   
@<TRIPOS>SUBSTRUCTURE
     1 AO1         1 TEMP              0 ****  ****    0 ROOT
