@<TRIPOS>MOLECULE
AO1
   50    51     1     0     0
SMALL
bcc


@<TRIPOS>ATOM
      1 C1           8.0570    -2.3180    -0.2010 c3         1 AO1      -0.080100
      2 C2           6.5750    -2.1140    -0.4650 c3         1 AO1       0.019700
      3 S3           5.9790    -0.6620     0.4490 ss         1 AO1      -0.341200
      4 C4           4.2390    -0.6480    -0.0640 c3         1 AO1       0.008700
      5 C5           3.5410     0.5690     0.5250 c3         1 AO1      -0.093400
      6 C6           2.0560     0.6090     0.1540 c3         1 AO1       0.151500
      7 C8           1.3620     1.8470     0.7600 c3         1 AO1       0.077100
      8 C9          -0.1700     1.7450     0.7040 c          1 AO1       0.623100
      9 N10         -0.7040     1.4560    -0.4810 ns         1 AO1      -0.558900
     10 C11         -2.1230     1.2710    -0.6800 c3         1 AO1       0.161000
     11 C12         -2.6230    -0.0630    -0.1500 ca         1 AO1      -0.079300
     12 O13         -0.8180     1.9500     1.7260 o          1 AO1      -0.619100
     13 C14         -2.4300     1.4100    -2.1690 c3         1 AO1      -0.101100
     14 C15         -1.7760    -1.1340    -0.0360 ca         1 AO1      -0.120000
     15 C16         -2.2280    -2.3930     0.4050 ca         1 AO1      -0.125000
     16 C17         -3.5400    -2.5770     0.7320 ca         1 AO1      -0.114000
     17 C18         -4.4550    -1.5040     0.6300 ca         1 AO1      -0.036000
     18 C19         -4.0000    -0.2310     0.1850 ca         1 AO1      -0.019000
     19 C20         -5.8190    -1.6790     0.9630 ca         1 AO1      -0.116000
     20 C21         -6.7070    -0.6440     0.8610 ca         1 AO1      -0.126000
     21 C22         -6.2630     0.6180     0.4220 ca         1 AO1      -0.124000
     22 C23         -4.9500     0.8180     0.0940 ca         1 AO1      -0.119000
     23 O24          1.7380     2.0450     2.0900 oh         1 AO1      -0.596800
     24 N7           1.8110     0.6210    -1.2850 n8         1 AO1      -0.926800
     25 H11A         8.2520    -2.4940     0.8570 hc         1 AO1       0.045367
     26 H12          8.4170    -3.1850    -0.7550 hc         1 AO1       0.045367
     27 H13          8.6420    -1.4540    -0.5150 hc         1 AO1       0.045367
     28 H21A         6.3930    -1.9600    -1.5300 h1         1 AO1       0.053200
     29 H22A         6.0060    -2.9900    -0.1520 h1         1 AO1       0.053200
     30 H41          4.2000    -0.6360    -1.1550 h1         1 AO1       0.049700
     31 H42          3.7560    -1.5660     0.2790 h1         1 AO1       0.049700
     32 H51          3.6500     0.5560     1.6100 hc         1 AO1       0.074700
     33 H52          4.0270     1.4830     0.1640 hc         1 AO1       0.074700
     34 H6           1.5740    -0.2910     0.5540 h1         1 AO1       0.066700
     35 H8           1.6570     2.7170     0.1500 h1         1 AO1       0.060700
     36 H10         -0.0320     1.1750    -1.2010 hn         1 AO1       0.356500
     37 H11         -2.6280     2.0770    -0.1430 h1         1 AO1       0.079700
     38 H141        -3.4930     1.2740    -2.3600 hc         1 AO1       0.045033
     39 H142        -2.1450     2.3980    -2.5310 hc         1 AO1       0.045033
     40 H143        -1.8910     0.6590    -2.7480 hc         1 AO1       0.045033
     41 H15         -0.7280    -1.0250    -0.2890 ha         1 AO1       0.125000
     42 H16         -1.5240    -3.2110     0.4810 ha         1 AO1       0.129000
     43 H17         -3.8970    -3.5420     1.0720 ha         1 AO1       0.131000
     44 H20         -6.1500    -2.6540     1.3010 ha         1 AO1       0.130000
     45 H21         -7.7480    -0.7910     1.1170 ha         1 AO1       0.131000
     46 H22         -6.9680     1.4360     0.3450 ha         1 AO1       0.130000
     47 H23         -4.6440     1.8000    -0.2400 ha         1 AO1       0.130000
     48 H24          0.9110     2.1340     2.5900 ho         1 AO1       0.444000
     49 HN71         2.4170     1.2920    -1.7440 hn         1 AO1       0.356300
     50 HN72         2.0080    -0.2820    -1.6940 hn         1 AO1       0.356300
@<TRIPOS>BOND
     1     1     2 1   
     2     1    25 1   
     3     1    26 1   
     4     1    27 1   
     5     2     3 1   
     6     2    28 1   
     7     2    29 1   
     8     3     4 1   
     9     4     5 1   
    10     4    30 1   
    11     4    31 1   
    12     5     6 1   
    13     5    32 1   
    14     5    33 1   
    15     6     7 1   
    16     6    24 1   
    17     6    34 1   
    18     7     8 1   
    19     7    23 1   
    20     7    35 1   
    21     8     9 1   
    22     8    12 2   
    23     9    10 1   
    24     9    36 1   
    25    10    11 1   
    26    10    13 1   
    27    10    37 1   
    28    11    14 ar  
    29    11    18 ar  
    30    13    38 1   
    31    13    39 1   
    32    13    40 1   
    33    14    15 ar  
    34    14    41 1   
    35    15    16 ar  
    36    15    42 1   
    37    16    17 ar  
    38    16    43 1   
    39    17    18 ar  
    40    17    19 ar  
    41    18    22 ar  
    42    19    20 ar  
    43    19    44 1   
    44    20    21 ar  
    45    20    45 1   
    46    21    22 ar  
    47    21    46 1   
    48    22    47 1   
    49    23    48 1   
    50    24    49 1   
    51    24    50 1   
@<TRIPOS>SUBSTRUCTURE
     1 AO1         1 TEMP              0 ****  ****    0 ROOT
