@<TRIPOS>MOLECULE
AO2
   49    50     1     0     0
SMALL
abcg2


@<TRIPOS>ATOM
      1 C1          -2.7430    -1.6360     0.6810 c6         1 AO2      -0.071900
      2 C2          -3.3060    -3.0210     0.3750 c6         1 AO2      -0.073400
      3 C3          -4.8220    -3.0560     0.5330 c6         1 AO2      -0.074400
      4 C4          -5.4880    -1.9790    -0.3160 c6         1 AO2      -0.073400
      5 C5          -4.9180    -0.5980    -0.0080 c6         1 AO2      -0.071900
      6 C6          -3.3980    -0.5500    -0.1740 c6         1 AO2      -0.062700
      7 C7          -2.8730     0.8500     0.1360 c3         1 AO2      -0.109400
      8 C8          -1.3670     1.0330    -0.0790 c3         1 AO2       0.145500
      9 N9          -0.8790     0.6870    -1.4040 n8         1 AO2      -1.006200
     10 C10         -0.9460     2.4760     0.2440 c3         1 AO2       0.098300
     11 O11         -1.5900     3.4050    -0.5800 oh         1 AO2      -0.656000
     12 C12          0.5650     2.6250     0.0670 c          1 AO2       0.600100
     13 O13          1.0260     3.3160    -0.8230 o          1 AO2      -0.562100
     14 N14          1.3050     1.9450     0.9620 ns         1 AO2      -0.364300
     15 N15          2.6660     1.8660     0.8520 nu         1 AO2      -0.664200
     16 C16          3.2040     0.6390     0.4490 ca         1 AO2       0.247000
     17 C17          2.5010    -0.2340    -0.3780 ca         1 AO2      -0.148500
     18 C18          3.0910    -1.4220    -0.7900 ca         1 AO2      -0.083000
     19 C19          4.3800    -1.7790    -0.4070 ca         1 AO2      -0.103300
     20 C20          5.0720    -0.8880     0.4120 ca         1 AO2      -0.083000
     21 C21          4.5000     0.2980     0.8400 ca         1 AO2      -0.148500
     22 C22          4.9920    -3.0820    -0.8350 c3         1 AO2      -0.040800
     23 H11A        -1.6590    -1.6460     0.5340 hc         1 AO2       0.038450
     24 H12         -2.9040    -1.4020     1.7410 hc         1 AO2       0.038450
     25 H21A        -3.0430    -3.2970    -0.6520 hc         1 AO2       0.039200
     26 H22         -2.8390    -3.7670     1.0230 hc         1 AO2       0.039200
     27 H31         -5.2080    -4.0430     0.2670 hc         1 AO2       0.039200
     28 H32         -5.0780    -2.8960     1.5870 hc         1 AO2       0.039200
     29 H41         -5.3320    -2.2050    -1.3770 hc         1 AO2       0.039200
     30 H42         -6.5690    -1.9840    -0.1550 hc         1 AO2       0.039200
     31 H51         -5.1740    -0.3210     1.0220 hc         1 AO2       0.038450
     32 H52         -5.3820     0.1550    -0.6520 hc         1 AO2       0.038450
     33 H6          -3.1830    -0.7730    -1.2290 hc         1 AO2       0.039700
     34 H71         -3.1130     1.0990     1.1770 hc         1 AO2       0.054700
     35 H72         -3.4130     1.5710    -0.4860 hc         1 AO2       0.054700
     36 H8          -0.8450     0.3840     0.6320 h1         1 AO2       0.049700
     37 HN91        -1.0390    -0.2950    -1.5890 hn         1 AO2       0.405500
     38 HN92        -1.4010     1.1940    -2.1110 hn         1 AO2       0.405500
     39 H10         -1.2050     2.6850     1.2900 h1         1 AO2       0.068700
     40 H11         -0.9300     3.7230    -1.2130 ho         1 AO2       0.479000
     41 H14          0.8480     1.3810     1.6680 hn         1 AO2       0.305500
     42 H15          3.1370     2.2950     1.6350 hn         1 AO2       0.464000
     43 H17          1.5010     0.0100    -0.7190 ha         1 AO2       0.125000
     44 H18          2.5230    -2.0840    -1.4340 ha         1 AO2       0.109500
     45 H20          6.0790    -1.1250     0.7330 ha         1 AO2       0.109500
     46 H21          5.0620     0.9630     1.4850 ha         1 AO2       0.125000
     47 H221         4.9190    -3.8340    -0.0450 hc         1 AO2       0.039700
     48 H222         4.4920    -3.4870    -1.7140 hc         1 AO2       0.039700
     49 H223         6.0500    -2.9720    -1.0730 hc         1 AO2       0.039700
@<TRIPOS>BOND
     1     1     2 1   
     2     1     6 1   
     3     1    23 1   
     4     1    24 1   
     5     2     3 1   
     6     2    25 1   
     7     2    26 1   
     8     3     4 1   
     9     3    27 1   
    10     3    28 1   
    11     4     5 1   
    12     4    29 1   
    13     4    30 1   
    14     5     6 1   
    15     5    31 1   
    16     5    32 1   
    17     6     7 1   
    18     6    33 1   
    19     7     8 1   
    20     7    34 1   
    21     7    35 1   
    22     8     9 1   
    23     8    10 1   
    24     8    36 1   
    25     9    37 1   
    26     9    38 1   
    27    10    11 1   
    28    10    12 1   
    29    10    39 1   
    30    11    40 1   
    31    12    13 2   
    32    12    14 1   
    33    14    15 1   
    34    14    41 1   
    35    15    16 1   
    36    15    42 1   
    37    16    17 ar  
    38    16    21 ar  
    39    17    18 ar  
    40    17    43 1   
    41    18    19 ar  
    42    18    44 1   
    43    19    20 ar  
    44    19    22 1   
    45    20    21 ar  
    46    20    45 1   
    47    21    46 1   
    48    22    47 1   
    49    22    48 1   
    50    22    49 1   
@<TRIPOS>SUBSTRUCTURE
     1 AO2         1 TEMP              0 ****  ****    0 ROOT
