@<TRIPOS>MOLECULE
AO2
   49    50     1     0     0
SMALL
No Charge or Current Charge


@<TRIPOS>ATOM
      1 C1          -2.9780    -1.1240    -1.5270 c6         1 AO2      -0.071900
      2 C2          -4.0300    -2.2290    -1.7970 c6         1 AO2      -0.073400
      3 C3          -4.0350    -3.2900    -0.6710 c6         1 AO2      -0.074400
      4 C4          -4.2590    -2.6310     0.7100 c6         1 AO2      -0.073400
      5 C5          -3.2030    -1.5310     0.9820 c6         1 AO2      -0.071900
      6 C6          -3.1930    -0.4510    -0.1380 c6         1 AO2      -0.062700
      7 C7          -2.1210     0.6440     0.1690 c3         1 AO2      -0.109400
      8 C8          -2.0580     1.8540    -0.8000 c3         1 AO2       0.145500
      9 N9          -3.3440     2.6060    -0.8100 n8         1 AO2      -1.006200
     10 C10         -0.8930     2.8290    -0.4740 c3         1 AO2       0.098300
     11 O11         -1.2680     4.0970    -1.0510 oh         1 AO2      -0.656000
     12 C12          0.4830     2.2840    -0.9740 c          1 AO2       0.600100
     13 O13          0.7340     2.0830    -2.1600 o          1 AO2      -0.562100
     14 N14          1.4200     2.0340     0.0370 ns         1 AO2      -0.364300
     15 N15          2.7610     1.5470    -0.2020 nu         1 AO2      -0.664200
     16 C16          3.2030     0.3090     0.2890 ca         1 AO2       0.247000
     17 C17          2.2980    -0.6810     0.7200 ca         1 AO2      -0.148500
     18 C18          2.7680    -1.9150     1.2040 ca         1 AO2      -0.083000
     19 C19          4.1500    -2.1740     1.2590 ca         1 AO2      -0.103300
     20 C20          5.0560    -1.1880     0.8270 ca         1 AO2      -0.083000
     21 C21          4.5820     0.0450     0.3430 ca         1 AO2      -0.148500
     22 C22          4.6600    -3.5070     1.7850 c3         1 AO2      -0.040800
     23 H11A        -3.0390    -0.3770    -2.3290 hc         1 AO2       0.038450
     24 H12         -1.9690    -1.5570    -1.5800 hc         1 AO2       0.038450
     25 H21A        -5.0280    -1.7750    -1.8820 hc         1 AO2       0.039200
     26 H22         -3.8240    -2.7110    -2.7620 hc         1 AO2       0.039200
     27 H31         -4.8210    -4.0330    -0.8620 hc         1 AO2       0.039200
     28 H32         -3.0810    -3.8360    -0.6720 hc         1 AO2       0.039200
     29 H41         -5.2670    -2.1960     0.7550 hc         1 AO2       0.039200
     30 H42         -4.2130    -3.3940     1.4990 hc         1 AO2       0.039200
     31 H51         -2.2080    -1.9920     1.0650 hc         1 AO2       0.038450
     32 H52         -3.4100    -1.0610     1.9530 hc         1 AO2       0.038450
     33 H6          -4.1730     0.0460    -0.1370 hc         1 AO2       0.039700
     34 H71         -1.1320     0.1700     0.1840 hc         1 AO2       0.054700
     35 H72         -2.2790     1.0280     1.1850 hc         1 AO2       0.054700
     36 H8          -1.8910     1.4840    -1.8210 h1         1 AO2       0.049700
     37 HN91        -4.0520     2.0360    -1.2910 hn         1 AO2       0.405500
     38 HN92        -3.7110     2.6490     0.1500 hn         1 AO2       0.405500
     39 H10         -0.8320     2.9370     0.6170 h1         1 AO2       0.068700
     40 H11         -2.2480     3.9460    -1.1640 ho         1 AO2       0.479000
     41 H14          1.1650     2.2830     0.9920 hn         1 AO2       0.305500
     42 H15          3.4610     2.2780    -0.3810 hn         1 AO2       0.464000
     43 H17          1.2280    -0.5030     0.6790 ha         1 AO2       0.125000
     44 H18          2.0570    -2.6680     1.5350 ha         1 AO2       0.109500
     45 H20          6.1270    -1.3750     0.8650 ha         1 AO2       0.109500
     46 H21          5.2930     0.7970     0.0110 ha         1 AO2       0.125000
     47 H221         4.8210    -3.4630     2.8690 hc         1 AO2       0.039700
     48 H222         3.9470    -4.3160     1.5840 hc         1 AO2       0.039700
     49 H223         5.6120    -3.7850     1.3170 hc         1 AO2       0.039700
@<TRIPOS>BOND
     1     1     2 1   
     2     1     6 1   
     3     1    23 1   
     4     1    24 1   
     5     2     3 1   
     6     2    25 1   
     7     2    26 1   
     8     3     4 1   
     9     3    27 1   
    10     3    28 1   
    11     4     5 1   
    12     4    29 1   
    13     4    30 1   
    14     5     6 1   
    15     5    31 1   
    16     5    32 1   
    17     6     7 1   
    18     6    33 1   
    19     7     8 1   
    20     7    34 1   
    21     7    35 1   
    22     8     9 1   
    23     8    10 1   
    24     8    36 1   
    25     9    37 1   
    26     9    38 1   
    27    10    11 1   
    28    10    12 1   
    29    10    39 1   
    30    11    40 1   
    31    12    13 2   
    32    12    14 1   
    33    14    15 1   
    34    14    41 1   
    35    15    16 1   
    36    15    42 1   
    37    16    17 ar  
    38    16    21 ar  
    39    17    18 ar  
    40    17    43 1   
    41    18    19 ar  
    42    18    44 1   
    43    19    20 ar  
    44    19    22 1   
    45    20    21 ar  
    46    20    45 1   
    47    21    46 1   
    48    22    47 1   
    49    22    48 1   
    50    22    49 1   
@<TRIPOS>SUBSTRUCTURE
     1 AO2         1 TEMP              0 ****  ****    0 ROOT
