@<TRIPOS>MOLECULE
AO3
   85    88     1     0     0
SMALL
No Charge or Current Charge


@<TRIPOS>ATOM
      1 C1           3.6420     0.3760     0.2760 c6         1 AO3       0.378300
      2 C2           4.9980    -0.2800     0.6810 c6         1 AO3       0.090700
      3 C3           6.0580     0.8410     0.9040 c6         1 AO3       0.165300
      4 C4           6.1310     1.8150    -0.3140 c6         1 AO3       0.103300
      5 C5           4.7030     2.3210    -0.6910 c6         1 AO3       0.156300
      6 C6           4.6990     3.1920    -1.9890 c3         1 AO3       0.168600
      7 C7           4.6090    -2.4680     1.9230 c          1 AO3       0.608100
      8 C8           4.4430    -3.0570     3.3160 c3         1 AO3      -0.182100
      9 N2           4.8740    -1.1200     1.8970 ns         1 AO3      -0.502900
     10 O3           5.7790     1.5920     2.1000 oh         1 AO3      -0.670000
     11 O4           7.0180     2.9160    -0.0080 oh         1 AO3      -0.723000
     12 O5           3.8260     1.1860    -0.9010 os         1 AO3      -0.478000
     13 O6           3.3770     3.5940    -2.3970 oh         1 AO3      -0.703000
     14 O7           4.5260    -3.1430     0.9090 o          1 AO3      -0.592100
     15 C11         -1.4430    -0.1760    -0.9680 c6         1 AO3       0.385300
     16 C12         -0.7230     1.1710    -0.6620 c6         1 AO3       0.087700
     17 C13          0.8210     0.9510    -0.6900 c6         1 AO3       0.143300
     18 C14          1.2710    -0.2750     0.1800 c6         1 AO3       0.105300
     19 C15          0.3800    -1.5130    -0.1330 c6         1 AO3       0.178300
     20 C16          0.6760    -2.7160     0.8230 c3         1 AO3       0.168600
     21 C17         -2.0970     3.1690    -1.4400 c          1 AO3       0.611100
     22 C18         -2.3140     4.1000    -2.6250 c3         1 AO3      -0.179100
     23 N12         -1.0980     2.2430    -1.6140 ns         1 AO3      -0.490900
     24 O13          1.3190     0.8330    -2.0360 oh         1 AO3      -0.733000
     25 O14          2.6630    -0.6260    -0.0470 os         1 AO3      -0.442000
     26 O15         -1.0200    -1.1640    -0.0170 os         1 AO3      -0.470000
     27 O16         -0.1630    -3.8640     0.5770 oh         1 AO3      -0.707000
     28 O17         -2.7470     3.2550    -0.4100 o          1 AO3      -0.612100
     29 C21         -5.6830    -0.7560    -0.1580 c5         1 AO3       0.145300
     30 C22         -4.9930    -2.0810     0.2610 c5         1 AO3       0.078500
     31 C23         -3.8350    -2.3390    -0.7810 c5         1 AO3       0.132300
     32 C24         -3.7120    -0.9850    -1.5790 c5         1 AO3       0.178300
     33 C25         -5.1670    -0.4220    -1.5920 c5         1 AO3      -0.080700
     34 C26         -6.0480    -1.0250    -2.7130 c3         1 AO3       0.171600
     35 C27         -4.5100    -0.5020     1.7160 c2         1 AO3       0.811500
     36 C28         -3.2120    -0.5200     3.8470 c3         1 AO3       0.204100
     37 C29         -4.0590     1.6500     2.8730 c3         1 AO3       0.204100
     38 N22         -4.3990    -1.7750     1.5890 n2         1 AO3      -0.724900
     39 N27         -3.9980     0.1760     2.8040 nh         1 AO3      -0.722600
     40 O23         -4.1490    -3.4460    -1.6460 oh         1 AO3      -0.731000
     41 O24         -2.8730    -0.0180    -0.8870 os         1 AO3      -0.432000
     42 O26         -7.3300    -0.3850    -2.7300 oh         1 AO3      -0.665000
     43 O27         -5.1860     0.2170     0.7760 os         1 AO3      -0.450600
     44 H2           3.2770     0.9960     1.1090 h2         1 AO3       0.041700
     45 H6           5.3300    -0.9120    -0.1560 h1         1 AO3       0.106700
     46 H3           7.0400     0.3550     1.0040 h1         1 AO3       0.057700
     47 H4           6.5200     1.2510    -1.1760 h1         1 AO3       0.052700
     48 H5           4.3000     2.9340     0.1290 h1         1 AO3       0.072700
     49 H61          5.3190     4.0800    -1.8110 h1         1 AO3       0.024700
     50 H62          5.1780     2.6140    -2.7910 h1         1 AO3       0.024700
     51 H81          5.3310    -2.8200     3.9130 hc         1 AO3       0.062033
     52 H82          3.6550    -2.5090     3.8440 hc         1 AO3       0.062033
     53 H83          4.2440    -4.1350     3.2980 hc         1 AO3       0.062033
     54 HN2          4.9510    -0.6540     2.7940 hn         1 AO3       0.323500
     55 HO3          6.2430     2.4510     1.9570 ho         1 AO3       0.468000
     56 HO4          7.9260     2.6570    -0.2970 ho         1 AO3       0.515000
     57 HO6          3.4770     4.0980    -3.2370 ho         1 AO3       0.507000
     58 H11         -1.1740    -0.4990    -1.9850 h2         1 AO3       0.041700
     59 H12         -1.0120     1.4800     0.3530 h1         1 AO3       0.105700
     60 H13          1.2630     1.8490    -0.2330 h1         1 AO3       0.072700
     61 H14          1.1430    -0.0190     1.2420 h1         1 AO3       0.061700
     62 H15          0.5780    -1.8450    -1.1630 h1         1 AO3       0.075700
     63 H161         1.7300    -2.9970     0.7040 h1         1 AO3       0.028200
     64 H162         0.5460    -2.3710     1.8580 h1         1 AO3       0.028200
     65 H181        -1.3640     4.5840    -2.8790 hc         1 AO3       0.059700
     66 H182        -2.5150     3.4980    -3.5190 hc         1 AO3       0.059700
     67 H183        -3.1070     4.8350    -2.4450 hc         1 AO3       0.059700
     68 H8          -0.5910     2.2790    -2.4910 hn         1 AO3       0.322500
     69 H7           2.3050     0.9080    -1.9270 ho         1 AO3       0.529000
     70 H16          0.0640    -4.5370     1.2590 ho         1 AO3       0.501000
     71 H21         -6.7790    -0.8020    -0.0820 h1         1 AO3       0.089700
     72 H22         -5.7060    -2.9150     0.3200 h1         1 AO3       0.069700
     73 H23         -2.9000    -2.5680    -0.2530 h1         1 AO3       0.095700
     74 H24         -3.3190    -1.1290    -2.5950 h1         1 AO3       0.059700
     75 H25         -5.1570     0.6600    -1.7630 hc         1 AO3       0.097700
     76 H261        -5.5420    -0.8790    -3.6780 h1         1 AO3       0.031200
     77 H262        -6.1680    -2.1040    -2.5580 h1         1 AO3       0.031200
     78 H281        -2.8920     0.1680     4.6400 h1         1 AO3       0.044700
     79 H282        -3.8120    -1.3150     4.3100 h1         1 AO3       0.044700
     80 H283        -2.3150    -0.9740     3.4060 h1         1 AO3       0.044700
     81 H291        -3.6180     2.0320     3.8020 h1         1 AO3       0.044700
     82 H292        -3.5130     2.0910     2.0280 h1         1 AO3       0.044700
     83 H293        -5.1010     1.9910     2.8270 h1         1 AO3       0.044700
     84 H1          -4.0200    -4.2690    -1.1180 ho         1 AO3       0.509000
     85 H26         -7.8370    -0.7770    -3.4760 ho         1 AO3       0.443000
@<TRIPOS>BOND
     1     1     2 1   
     2     1    12 1   
     3     1    25 1   
     4     1    44 1   
     5     2     3 1   
     6     2     9 1   
     7     2    45 1   
     8     3     4 1   
     9     3    10 1   
    10     3    46 1   
    11     4     5 1   
    12     4    11 1   
    13     4    47 1   
    14     5     6 1   
    15     5    12 1   
    16     5    48 1   
    17     6    13 1   
    18     6    49 1   
    19     6    50 1   
    20     7     8 1   
    21     7     9 1   
    22     7    14 2   
    23     8    51 1   
    24     8    52 1   
    25     8    53 1   
    26     9    54 1   
    27    10    55 1   
    28    11    56 1   
    29    13    57 1   
    30    15    16 1   
    31    15    26 1   
    32    15    41 1   
    33    15    58 1   
    34    16    17 1   
    35    16    23 1   
    36    16    59 1   
    37    17    18 1   
    38    17    24 1   
    39    17    60 1   
    40    18    19 1   
    41    18    25 1   
    42    18    61 1   
    43    19    20 1   
    44    19    26 1   
    45    19    62 1   
    46    20    27 1   
    47    20    63 1   
    48    20    64 1   
    49    21    22 1   
    50    21    23 1   
    51    21    28 2   
    52    22    65 1   
    53    22    66 1   
    54    22    67 1   
    55    23    68 1   
    56    24    69 1   
    57    27    70 1   
    58    29    30 1   
    59    29    33 1   
    60    29    43 1   
    61    29    71 1   
    62    30    31 1   
    63    30    38 1   
    64    30    72 1   
    65    31    32 1   
    66    31    40 1   
    67    31    73 1   
    68    32    33 1   
    69    32    41 1   
    70    32    74 1   
    71    33    34 1   
    72    33    75 1   
    73    34    42 1   
    74    34    76 1   
    75    34    77 1   
    76    35    38 2   
    77    35    39 1   
    78    35    43 1   
    79    36    39 1   
    80    36    78 1   
    81    36    79 1   
    82    36    80 1   
    83    37    39 1   
    84    37    81 1   
    85    37    82 1   
    86    37    83 1   
    87    40    84 1   
    88    42    85 1   
@<TRIPOS>SUBSTRUCTURE
     1 AO3         1 TEMP              0 ****  ****    0 ROOT
