@<TRIPOS>MOLECULE
AO3
   85    88     1     0     0
SMALL
abcg2


@<TRIPOS>ATOM
      1 C1           3.5150     0.4470     0.4940 c6         1 AO3       0.378300
      2 C2           4.8580    -0.2870     0.4800 c6         1 AO3       0.090700
      3 C3           5.9180     0.5730     1.1610 c6         1 AO3       0.165300
      4 C4           5.9370     1.9730     0.5440 c6         1 AO3       0.103300
      5 C5           4.5270     2.5760     0.5350 c6         1 AO3       0.156300
      6 C6           4.4770     3.9010    -0.1930 c3         1 AO3       0.168600
      7 C7           4.6260    -2.7340     0.4140 c          1 AO3       0.608100
      8 C8           4.3340    -3.9480     1.2610 c3         1 AO3      -0.182100
      9 N2           4.7540    -1.5800     1.1020 ns         1 AO3      -0.502900
     10 O3           5.6070     0.6170     2.5340 oh         1 AO3      -0.670000
     11 O4           6.8340     2.7520     1.3010 oh         1 AO3      -0.723000
     12 O5           3.6540     1.6900    -0.1380 os         1 AO3      -0.478000
     13 O6           3.1690     4.4140    -0.1180 oh         1 AO3      -0.703000
     14 O7           4.7230    -2.8050    -0.8010 o          1 AO3      -0.592100
     15 C11         -1.4250    -0.4520    -1.0260 c6         1 AO3       0.385300
     16 C12         -0.8010     0.9400    -1.1630 c6         1 AO3       0.087700
     17 C13          0.7210     0.8330    -1.2040 c6         1 AO3       0.143300
     18 C14          1.2340     0.0010    -0.0240 c6         1 AO3       0.105300
     19 C15          0.4760    -1.3210     0.0910 c6         1 AO3       0.178300
     20 C16          0.8310    -2.0660     1.3600 c3         1 AO3       0.168600
     21 C17         -2.0330     2.7590    -2.2760 c          1 AO3       0.611100
     22 C18         -2.5380     3.2430    -3.6130 c3         1 AO3      -0.179100
     23 N12         -1.3020     1.6300    -2.3210 ns         1 AO3      -0.490900
     24 O13          1.0670     0.2290    -2.4290 oh         1 AO3      -0.733000
     25 O14          2.6030    -0.3000    -0.2180 os         1 AO3      -0.442000
     26 O15         -0.9080    -1.0620     0.1280 os         1 AO3      -0.470000
     27 O16          0.3060    -3.3700     1.2860 oh         1 AO3      -0.707000
     28 O17         -2.2840     3.3610    -1.2410 o          1 AO3      -0.612100
     29 C21         -5.5370    -0.8400     0.0790 c5         1 AO3       0.145300
     30 C22         -4.7040    -1.9260     0.8140 c5         1 AO3       0.078500
     31 C23         -3.7080    -2.4780    -0.2230 c5         1 AO3       0.132300
     32 C24         -3.6150    -1.3700    -1.2830 c5         1 AO3       0.178300
     33 C25         -5.0310    -0.7900    -1.3640 c5         1 AO3      -0.080700
     34 C26         -5.9480    -1.5500    -2.3140 c3         1 AO3       0.171600
     35 C27         -4.3040     0.0180     1.7300 c2         1 AO3       0.811500
     36 C28         -2.6380     0.7400     3.2660 c3         1 AO3       0.204100
     37 C29         -3.9120     2.3990     1.9790 c3         1 AO3       0.204100
     38 N22         -4.0200    -1.2170     1.8710 n2         1 AO3      -0.724900
     39 N27         -3.8110     1.0370     2.4710 nh         1 AO3      -0.722600
     40 O23         -4.2000    -3.6220    -0.8910 oh         1 AO3      -0.731000
     41 O24         -2.7820    -0.3000    -0.8780 os         1 AO3      -0.432000
     42 O26         -7.1210    -0.7810    -2.4810 oh         1 AO3      -0.665000
     43 O27         -5.1980     0.3600     0.7860 os         1 AO3      -0.450600
     44 H2           3.1690     0.5940     1.5320 h2         1 AO3       0.041700
     45 H6           5.1490    -0.4340    -0.5620 h1         1 AO3       0.106700
     46 H3           6.9010     0.1090     0.9970 h1         1 AO3       0.057700
     47 H4           6.2760     1.8720    -0.4970 h1         1 AO3       0.052700
     48 H5           4.1960     2.7240     1.5740 h1         1 AO3       0.072700
     49 H61          5.2020     4.5800     0.2740 h1         1 AO3       0.024700
     50 H62          4.7980     3.7510    -1.2330 h1         1 AO3       0.024700
     51 H81          4.5130    -3.7890     2.3230 hc         1 AO3       0.062033
     52 H82          3.2850    -4.2230     1.1340 hc         1 AO3       0.062033
     53 H83          4.9350    -4.7910     0.9240 hc         1 AO3       0.062033
     54 HN2          4.6650    -1.6070     2.1060 hn         1 AO3       0.323500
     55 HO3          6.3250     1.0580     3.0000 ho         1 AO3       0.468000
     56 HO4          7.2360     3.4170     0.7360 ho         1 AO3       0.515000
     57 HO6          3.1510     5.2490    -0.5930 ho         1 AO3       0.507000
     58 H11         -1.1920    -1.0690    -1.9120 h2         1 AO3       0.041700
     59 H12         -1.0870     1.5170    -0.2800 h1         1 AO3       0.105700
     60 H13          1.1430     1.8440    -1.1310 h1         1 AO3       0.072700
     61 H14          1.0880     0.5790     0.9000 h1         1 AO3       0.061700
     62 H15          0.7340    -1.9500    -0.7760 h1         1 AO3       0.075700
     63 H161         1.9200    -2.0780     1.4700 h1         1 AO3       0.028200
     64 H162         0.4270    -1.5110     2.2180 h1         1 AO3       0.028200
     65 H181        -2.0930     2.7240    -4.4610 hc         1 AO3       0.059700
     66 H182        -3.6180     3.1010    -3.6580 hc         1 AO3       0.059700
     67 H183        -2.3460     4.3100    -3.7150 hc         1 AO3       0.059700
     68 H8          -1.1140     1.2210    -3.2220 hn         1 AO3       0.322500
     69 H7           2.0230     0.1090    -2.4430 ho         1 AO3       0.529000
     70 H16          0.5020    -3.8160     2.1150 ho         1 AO3       0.501000
     71 H21         -6.6190    -0.9710     0.1420 h1         1 AO3       0.089700
     72 H22         -5.3220    -2.7350     1.2190 h1         1 AO3       0.069700
     73 H23         -2.7440    -2.6830     0.2520 h1         1 AO3       0.095700
     74 H24         -3.2690    -1.7730    -2.2450 h1         1 AO3       0.059700
     75 H25         -4.9760     0.2410    -1.7260 hc         1 AO3       0.097700
     76 H261        -5.4260    -1.6960    -3.2680 h1         1 AO3       0.031200
     77 H262        -6.1790    -2.5440    -1.9210 h1         1 AO3       0.031200
     78 H281        -2.4850     1.5420     3.9860 h1         1 AO3       0.044700
     79 H282        -2.7740    -0.1900     3.8120 h1         1 AO3       0.044700
     80 H283        -1.7380     0.6430     2.6500 h1         1 AO3       0.044700
     81 H291        -3.6890     3.0790     2.8000 h1         1 AO3       0.044700
     82 H292        -3.2140     2.6040     1.1630 h1         1 AO3       0.044700
     83 H293        -4.9190     2.6200     1.6350 h1         1 AO3       0.044700
     84 H1          -4.4040    -4.2920    -0.2310 ho         1 AO3       0.509000
     85 H26         -7.7500    -1.3020    -2.9880 ho         1 AO3       0.443000
@<TRIPOS>BOND
     1     1     2 1   
     2     1    12 1   
     3     1    25 1   
     4     1    44 1   
     5     2     3 1   
     6     2     9 1   
     7     2    45 1   
     8     3     4 1   
     9     3    10 1   
    10     3    46 1   
    11     4     5 1   
    12     4    11 1   
    13     4    47 1   
    14     5     6 1   
    15     5    12 1   
    16     5    48 1   
    17     6    13 1   
    18     6    49 1   
    19     6    50 1   
    20     7     8 1   
    21     7     9 1   
    22     7    14 2   
    23     8    51 1   
    24     8    52 1   
    25     8    53 1   
    26     9    54 1   
    27    10    55 1   
    28    11    56 1   
    29    13    57 1   
    30    15    16 1   
    31    15    26 1   
    32    15    41 1   
    33    15    58 1   
    34    16    17 1   
    35    16    23 1   
    36    16    59 1   
    37    17    18 1   
    38    17    24 1   
    39    17    60 1   
    40    18    19 1   
    41    18    25 1   
    42    18    61 1   
    43    19    20 1   
    44    19    26 1   
    45    19    62 1   
    46    20    27 1   
    47    20    63 1   
    48    20    64 1   
    49    21    22 1   
    50    21    23 1   
    51    21    28 2   
    52    22    65 1   
    53    22    66 1   
    54    22    67 1   
    55    23    68 1   
    56    24    69 1   
    57    27    70 1   
    58    29    30 1   
    59    29    33 1   
    60    29    43 1   
    61    29    71 1   
    62    30    31 1   
    63    30    38 1   
    64    30    72 1   
    65    31    32 1   
    66    31    40 1   
    67    31    73 1   
    68    32    33 1   
    69    32    41 1   
    70    32    74 1   
    71    33    34 1   
    72    33    75 1   
    73    34    42 1   
    74    34    76 1   
    75    34    77 1   
    76    35    38 2   
    77    35    39 1   
    78    35    43 1   
    79    36    39 1   
    80    36    78 1   
    81    36    79 1   
    82    36    80 1   
    83    37    39 1   
    84    37    81 1   
    85    37    82 1   
    86    37    83 1   
    87    40    84 1   
    88    42    85 1   
@<TRIPOS>SUBSTRUCTURE
     1 AO3         1 TEMP              0 ****  ****    0 ROOT
