@<TRIPOS>MOLECULE
AO4
   13    13     1     0     0
SMALL
No Charge or Current Charge


@<TRIPOS>ATOM
      1 CAH          2.3540     0.4500    -0.0050 c          1 AO4       0.716600
      2 OAI          2.4160     1.6720    -0.0200 o          1 AO4      -0.707500
      3 OAJ          3.3440    -0.2680    -0.0070 o          1 AO4      -0.707500
      4 CAF          0.9850    -0.2040     0.0160 ca         1 AO4      -0.106600
      5 CAA         -0.2030     0.5630     0.0190 ca         1 AO4      -0.120000
      6 CAB         -1.4470    -0.0880     0.0390 ca         1 AO4       0.415000
      7 Cl1         -2.9380     0.8410     0.0430 cl         1 AO4      -0.241000
      8 NAC         -1.5880    -1.4310     0.0550 nb         1 AO4      -0.700000
      9 CAD         -0.4580    -2.1730     0.0520 ca         1 AO4       0.299900
     10 CAE          0.8310    -1.6100     0.0330 ca         1 AO4      -0.133000
     11 HAA         -0.1710     1.6480     0.0060 ha         1 AO4       0.150000
     12 HAD         -0.5900    -3.2540     0.0650 h4         1 AO4      -0.003900
     13 HAE          1.6960    -2.2680     0.0320 ha         1 AO4       0.138000
@<TRIPOS>BOND
     1     1     2 1   
     2     1     3 1   
     3     1     4 1   
     4     4     5 ar  
     5     4    10 ar  
     6     5     6 ar  
     7     5    11 1   
     8     6     7 1   
     9     6     8 ar  
    10     8     9 ar  
    11     9    10 ar  
    12     9    12 1   
    13    10    13 1   
@<TRIPOS>SUBSTRUCTURE
     1 AO4         1 TEMP              0 ****  ****    0 ROOT
