@<TRIPOS>MOLECULE
AO4
   13    13     1     0     0
SMALL
abcg2


@<TRIPOS>ATOM
      1 CAH          2.3380     0.4500    -0.0050 c          1 AO4       0.716600
      2 OAI          2.3460     1.6920    -0.0170 o          1 AO4      -0.707500
      3 OAJ          3.3110    -0.3220    -0.0090 o          1 AO4      -0.707500
      4 CAF          0.9590    -0.2140     0.0160 ca         1 AO4      -0.106600
      5 CAA         -0.1980     0.5520     0.0190 ca         1 AO4      -0.120000
      6 CAB         -1.4120    -0.1130     0.0380 ca         1 AO4       0.415000
      7 CL1         -2.8780     0.8280     0.0420 cl         1 AO4      -0.241000
      8 NAC         -1.5610    -1.4150     0.0540 nb         1 AO4      -0.700000
      9 CAD         -0.4490    -2.1480     0.0520 ca         1 AO4       0.299900
     10 CAE          0.8210    -1.5990     0.0330 ca         1 AO4      -0.133000
     11 HAA         -0.1500     1.6310     0.0070 ha         1 AO4       0.150000
     12 HAD         -0.5860    -3.2230     0.0660 h4         1 AO4      -0.003900
     13 HAE          1.6890    -2.2420     0.0320 ha         1 AO4       0.138000
@<TRIPOS>BOND
     1     1     2 1   
     2     1     3 1   
     3     1     4 1   
     4     4     5 ar  
     5     4    10 ar  
     6     5     6 ar  
     7     5    11 1   
     8     6     7 1   
     9     6     8 ar  
    10     8     9 ar  
    11     9    10 ar  
    12     9    12 1   
    13    10    13 1   
@<TRIPOS>SUBSTRUCTURE
     1 AO4         1 TEMP              0 ****  ****    0 ROOT
