@<TRIPOS>MOLECULE
AO5
   45    45     1     0     0
SMALL
No Charge or Current Charge


@<TRIPOS>ATOM
      1 C1          -7.0180     1.6320     0.4970 c3         1 AO5       0.091300
      2 C2          -6.4330     3.0580     0.4810 c3         1 AO5      -0.085100
      3 C3          -8.5030     1.6000     0.0840 c3         1 AO5      -0.085100
      4 S4          -6.0480     0.5400    -0.6380 ss         1 AO5      -0.454000
      5 C5          -4.6270     0.0970     0.4600 c3         1 AO5       0.063600
      6 C6          -3.6600    -0.8530    -0.2770 c3         1 AO5      -0.102400
      7 C7          -2.3810    -1.2100     0.5200 c3         1 AO5       0.139500
      8 N8          -2.7460    -1.9580     1.7620 n8         1 AO5      -1.001200
      9 C9          -1.3780    -2.0510    -0.3290 c3         1 AO5       0.109300
     10 O10         -1.6350    -3.4310     0.0010 oh         1 AO5      -0.644000
     11 C11          0.1000    -1.6240    -0.0550 c          1 AO5       0.588100
     12 O12          0.6180    -1.6770     1.0580 o          1 AO5      -0.562100
     13 N13          0.8070    -1.1790    -1.1670 ns         1 AO5      -0.370500
     14 N14          2.1150    -0.5980    -1.0960 ns         1 AO5      -0.373500
     15 C15          2.3700     0.6640    -0.5730 c          1 AO5       0.620700
     16 O16          1.4540     1.4090    -0.2450 o          1 AO5      -0.570100
     17 C17          3.8250     1.0750    -0.4450 ca         1 AO5      -0.142600
     18 C18          4.1400     2.3390     0.1080 ca         1 AO5      -0.058000
     19 C19          5.4770     2.7550     0.2420 ca         1 AO5      -0.111000
     20 C20          6.5210     1.9140    -0.1740 ca         1 AO5      -0.081000
     21 C21          6.2260     0.6590    -0.7250 ca         1 AO5       0.109000
     22 C22          4.8920     0.2380    -0.8620 ca         1 AO5      -0.077000
     23 Cl23         7.5340    -0.3940    -1.2490 cl         1 AO5      -0.194000
     24 H1          -6.9390     1.2290     1.5150 h1         1 AO5       0.060700
     25 H21         -5.3870     3.0530     0.8090 hc         1 AO5       0.043700
     26 H22A        -6.4760     3.4860    -0.5270 hc         1 AO5       0.043700
     27 H23         -6.9960     3.7120     1.1570 hc         1 AO5       0.043700
     28 H31         -8.6330     1.9800    -0.9360 hc         1 AO5       0.043700
     29 H32         -8.8900     0.5750     0.1230 hc         1 AO5       0.043700
     30 H33         -9.1050     2.2170     0.7620 hc         1 AO5       0.043700
     31 H51         -4.0970     1.0140     0.7500 h1         1 AO5       0.053700
     32 H52         -5.0170    -0.3830     1.3670 h1         1 AO5       0.053700
     33 H61         -4.1940    -1.7730    -0.5480 hc         1 AO5       0.066700
     34 H62         -3.3650    -0.3720    -1.2180 hc         1 AO5       0.066700
     35 H7          -1.9020    -0.2610     0.8090 h1         1 AO5       0.058700
     36 HN81        -2.0050    -1.8200     2.4640 hn         1 AO5       0.406000
     37 HN82        -3.5580    -1.5090     2.2040 hn         1 AO5       0.406000
     38 H9          -1.5680    -1.8720    -1.3960 h1         1 AO5       0.077700
     39 H10         -2.1850    -3.3070     0.8240 ho         1 AO5       0.475000
     40 H13          0.3250    -1.1210    -2.0610 hn         1 AO5       0.330500
     41 H14          2.9010    -1.2050    -1.3050 hn         1 AO5       0.344500
     42 H18          3.3470     3.0080     0.4380 ha         1 AO5       0.136000
     43 H19          5.7020     3.7300     0.6700 ha         1 AO5       0.124000
     44 H20          7.5550     2.2340    -0.0700 ha         1 AO5       0.132000
     45 H22          4.7100    -0.7410    -1.2970 ha         1 AO5       0.137000
@<TRIPOS>BOND
     1     1     2 1   
     2     1     3 1   
     3     1     4 1   
     4     1    24 1   
     5     2    25 1   
     6     2    26 1   
     7     2    27 1   
     8     3    28 1   
     9     3    29 1   
    10     3    30 1   
    11     4     5 1   
    12     5     6 1   
    13     5    31 1   
    14     5    32 1   
    15     6     7 1   
    16     6    33 1   
    17     6    34 1   
    18     7     8 1   
    19     7     9 1   
    20     7    35 1   
    21     8    36 1   
    22     8    37 1   
    23     9    10 1   
    24     9    11 1   
    25     9    38 1   
    26    10    39 1   
    27    11    12 2   
    28    11    13 1   
    29    13    14 1   
    30    13    40 1   
    31    14    15 1   
    32    14    41 1   
    33    15    16 2   
    34    15    17 1   
    35    17    18 ar  
    36    17    22 ar  
    37    18    19 ar  
    38    18    42 1   
    39    19    20 ar  
    40    19    43 1   
    41    20    21 ar  
    42    20    44 1   
    43    21    22 ar  
    44    21    23 1   
    45    22    45 1   
@<TRIPOS>SUBSTRUCTURE
     1 AO5         1 TEMP              0 ****  ****    0 ROOT
