@<TRIPOS>MOLECULE
AO5
   45    45     1     0     0
SMALL
bcc


@<TRIPOS>ATOM
      1 C1          -6.9770     1.4420     0.7320 c3         1 AO5       0.043400
      2 C2          -6.5260     2.8240     0.2880 c3         1 AO5      -0.085100
      3 C3          -8.4850     1.2760     0.6100 c3         1 AO5      -0.085100
      4 S4          -6.2000     0.1170    -0.2560 ss         1 AO5      -0.358200
      5 C5          -4.4560     0.2760     0.2220 c3         1 AO5       0.015700
      6 C6          -3.6620    -0.8860    -0.3560 c3         1 AO5      -0.102400
      7 C7          -2.1700    -0.7840    -0.0180 c3         1 AO5       0.139500
      8 N8          -1.8630    -0.7650     1.4010 n8         1 AO5      -0.890800
      9 C9          -1.3940    -1.9380    -0.6770 c3         1 AO5       0.086100
     10 O10         -1.7390    -3.1820    -0.1410 oh         1 AO5      -0.581800
     11 C11          0.1030    -1.7010    -0.5200 c          1 AO5       0.655100
     12 O12          0.7880    -2.3390     0.2520 o          1 AO5      -0.562100
     13 N13          0.5970    -0.7260    -1.3210 ns         1 AO5      -0.437500
     14 N14          1.8760    -0.2940    -1.1800 ns         1 AO5      -0.440500
     15 C15          2.1950     0.6360    -0.2460 c          1 AO5       0.687700
     16 O16          1.3610     1.2010     0.4320 o          1 AO5      -0.570100
     17 C17          3.6530     0.9290    -0.1280 ca         1 AO5      -0.142600
     18 C18          4.0420     2.2190     0.2210 ca         1 AO5      -0.076000
     19 C19          5.3860     2.5250     0.3520 ca         1 AO5      -0.129000
     20 C20          6.3540     1.5490     0.1600 ca         1 AO5      -0.099000
     21 C21          5.9530     0.2630    -0.1670 ca         1 AO5       0.017400
     22 C22          4.6140    -0.0600    -0.3170 ca         1 AO5      -0.095000
     23 CL23         7.1480    -0.9710    -0.3860 cl         1 AO5      -0.102400
     24 H1          -6.6830     1.2780     1.7720 h1         1 AO5       0.060700
     25 H21         -5.4490     2.9530     0.3890 hc         1 AO5       0.043700
     26 H22A        -6.7930     3.0010    -0.7550 hc         1 AO5       0.043700
     27 H23         -7.0070     3.5910     0.8980 hc         1 AO5       0.043700
     28 H31         -8.8140     1.4070    -0.4230 hc         1 AO5       0.043700
     29 H32         -8.8130     0.2930     0.9500 hc         1 AO5       0.043700
     30 H33         -8.9910     2.0270     1.2170 hc         1 AO5       0.043700
     31 H51         -4.0550     1.2240    -0.1420 h1         1 AO5       0.053700
     32 H52         -4.3930     0.2810     1.3120 h1         1 AO5       0.053700
     33 H61         -4.0610    -1.8310     0.0230 hc         1 AO5       0.066700
     34 H62         -3.7820    -0.9040    -1.4440 hc         1 AO5       0.066700
     35 H7          -1.7940     0.1520    -0.4440 h1         1 AO5       0.058700
     36 HN81        -2.0690     0.1420     1.7970 hn         1 AO5       0.350800
     37 HN82        -2.4430    -1.4310     1.8980 hn         1 AO5       0.350800
     38 H9          -1.6390    -1.9600    -1.7460 h1         1 AO5       0.077700
     39 H10         -1.2120    -3.3140     0.6570 ho         1 AO5       0.436000
     40 H13         -0.0120    -0.1780    -1.9110 hn         1 AO5       0.330500
     41 H14          2.5640    -0.6880    -1.8030 hn         1 AO5       0.344500
     42 H18          3.2950     2.9850     0.3780 ha         1 AO5       0.154000
     43 H19          5.6900     3.5300     0.6100 ha         1 AO5       0.142000
     44 H20          7.4030     1.7860     0.2690 ha         1 AO5       0.150000
     45 H22          4.3330    -1.0790    -0.5480 ha         1 AO5       0.155000
@<TRIPOS>BOND
     1     1     2 1   
     2     1     3 1   
     3     1     4 1   
     4     1    24 1   
     5     2    25 1   
     6     2    26 1   
     7     2    27 1   
     8     3    28 1   
     9     3    29 1   
    10     3    30 1   
    11     4     5 1   
    12     5     6 1   
    13     5    31 1   
    14     5    32 1   
    15     6     7 1   
    16     6    33 1   
    17     6    34 1   
    18     7     8 1   
    19     7     9 1   
    20     7    35 1   
    21     8    36 1   
    22     8    37 1   
    23     9    10 1   
    24     9    11 1   
    25     9    38 1   
    26    10    39 1   
    27    11    12 2   
    28    11    13 1   
    29    13    14 1   
    30    13    40 1   
    31    14    15 1   
    32    14    41 1   
    33    15    16 2   
    34    15    17 1   
    35    17    18 ar  
    36    17    22 ar  
    37    18    19 ar  
    38    18    42 1   
    39    19    20 ar  
    40    19    43 1   
    41    20    21 ar  
    42    20    44 1   
    43    21    22 ar  
    44    21    23 1   
    45    22    45 1   
@<TRIPOS>SUBSTRUCTURE
     1 AO5         1 TEMP              0 ****  ****    0 ROOT
