@<TRIPOS>MOLECULE
AO6
   35    37     1     0     0
SMALL
abcg2


@<TRIPOS>ATOM
      1 CAS          3.5450     3.1380    -0.1330 c3         1 AO6      -0.132100
      2 CAR          2.7240     1.8990    -0.4550 c3         1 AO6       0.170300
      3 OAT          3.4050     1.0150    -1.3150 oh         1 AO6      -0.643000
      4 CAQ          2.2800     1.1960     0.8420 c3         1 AO6      -0.083200
      5 CAJ          1.4170     0.0050     0.5660 cc         1 AO6      -0.025200
      6 CAH         -0.0060     0.2350     0.3520 cc         1 AO6       0.031900
      7 NAG         -0.6250     1.4300     0.4360 na         1 AO6      -0.200700
      8 CAD         -1.9700     1.2870     0.1820 ca         1 AO6      -0.058200
      9 CAC         -2.9740     2.2470     0.1640 ca         1 AO6      -0.124000
     10 CAB         -4.2550     1.8110    -0.1210 ca         1 AO6      -0.090000
     11 CAA         -4.5230     0.4590    -0.3830 ca         1 AO6      -0.128000
     12 CAF         -3.5180    -0.4910    -0.3650 ca         1 AO6      -0.055000
     13 CAE         -2.2160    -0.0750    -0.0790 ca         1 AO6      -0.041800
     14 CAI         -0.9490    -0.7290     0.0320 cd         1 AO6      -0.230400
     15 CAM         -0.5570    -2.0900    -0.1100 c          1 AO6       0.522300
     16 OAN         -1.2860    -3.0250    -0.3750 o          1 AO6      -0.479100
     17 CAL          0.9520    -2.3610     0.1020 c          1 AO6       0.460300
     18 OAO          1.3430    -3.4950    -0.0400 o          1 AO6      -0.461100
     19 CAK          1.8800    -1.2610     0.4550 cd         1 AO6      -0.134400
     20 CAP          3.3070    -1.6700     0.6320 c3         1 AO6      -0.049900
     21 H1           4.4410     2.8800     0.4360 hc         1 AO6       0.045367
     22 H2           3.8560     3.6430    -1.0480 hc         1 AO6       0.045367
     23 H3           2.9660     3.8460     0.4620 hc         1 AO6       0.045367
     24 H4           1.8320     2.2060    -1.0100 h1         1 AO6       0.073700
     25 H5           4.2600     0.8020    -0.9250 ho         1 AO6       0.440000
     26 H6           3.1640     0.9070     1.4130 hc         1 AO6       0.054700
     27 H7           1.7550     1.9160     1.4740 hc         1 AO6       0.054700
     28 H8          -0.1880     2.3080     0.6740 hn         1 AO6       0.352000
     29 H9          -2.7640     3.2890     0.3650 ha         1 AO6       0.115000
     30 H10         -5.0660     2.5270    -0.1440 ha         1 AO6       0.114000
     31 H11         -5.5380     0.1560    -0.6020 ha         1 AO6       0.116000
     32 H12         -3.7360    -1.5300    -0.5680 ha         1 AO6       0.136000
     33 H13          3.3860    -2.5310     1.2960 hc         1 AO6       0.052700
     34 H14          3.7480    -1.9610    -0.3230 hc         1 AO6       0.052700
     35 H15          3.9200    -0.8760     1.0480 hc         1 AO6       0.052700
@<TRIPOS>BOND
     1     1     2 1   
     2     1    21 1   
     3     1    22 1   
     4     1    23 1   
     5     2     3 1   
     6     2     4 1   
     7     2    24 1   
     8     3    25 1   
     9     4     5 1   
    10     4    26 1   
    11     4    27 1   
    12     5     6 1   
    13     5    19 2   
    14     6     7 1   
    15     6    14 2   
    16     7     8 1   
    17     7    28 1   
    18     8     9 ar  
    19     8    13 ar  
    20     9    10 ar  
    21     9    29 1   
    22    10    11 ar  
    23    10    30 1   
    24    11    12 ar  
    25    11    31 1   
    26    12    13 ar  
    27    12    32 1   
    28    13    14 1   
    29    14    15 1   
    30    15    16 2   
    31    15    17 1   
    32    17    18 2   
    33    17    19 1   
    34    19    20 1   
    35    20    33 1   
    36    20    34 1   
    37    20    35 1   
@<TRIPOS>SUBSTRUCTURE
     1 AO6         1 TEMP              0 ****  ****    0 ROOT
