@<TRIPOS>MOLECULE
AO6
   35    37     1     0     0
SMALL
No Charge or Current Charge


@<TRIPOS>ATOM
      1 CAS          3.5250     3.2520    -0.0250 c3         1 AO6      -0.132100
      2 CAR          2.7160     1.9980    -0.4060 c3         1 AO6       0.170300
      3 OAT          3.4790     1.2330    -1.3430 oh         1 AO6      -0.643000
      4 CAQ          2.3600     1.1260     0.8250 c3         1 AO6      -0.083200
      5 CAJ          1.4460    -0.0460     0.5060 cc         1 AO6      -0.025200
      6 CAH          0.0430     0.2280     0.3200 cc         1 AO6       0.031900
      7 NAG         -0.6080     1.4730     0.4000 na         1 AO6      -0.200700
      8 CAD         -1.9640     1.2960     0.1510 ca         1 AO6      -0.058200
      9 CAC         -2.9840     2.2550     0.1240 ca         1 AO6      -0.124000
     10 CAB         -4.2960     1.8150    -0.1550 ca         1 AO6      -0.090000
     11 CAA         -4.5580     0.4440    -0.3980 ca         1 AO6      -0.128000
     12 CAF         -3.5110    -0.5030    -0.3650 ca         1 AO6      -0.055000
     13 CAE         -2.2210    -0.0310    -0.0850 ca         1 AO6      -0.041800
     14 CAI         -0.9390    -0.6910     0.0300 cd         1 AO6      -0.230400
     15 CAM         -0.6230    -2.1220    -0.1150 c          1 AO6       0.522300
     16 OAN         -1.4750    -2.9690    -0.3790 o          1 AO6      -0.479100
     17 CAL          0.9020    -2.4960     0.0990 c          1 AO6       0.460300
     18 OAO          1.2580    -3.6730     0.0270 o          1 AO6      -0.461100
     19 CAK          1.8690    -1.3740     0.3940 cd         1 AO6      -0.134400
     20 CAP          3.3190    -1.8050     0.5800 c3         1 AO6      -0.049900
     21 H1           4.4680     2.9810     0.4660 hc         1 AO6       0.045367
     22 H2           3.7570     3.8470    -0.9160 hc         1 AO6       0.045367
     23 H3           2.9510     3.8840     0.6630 hc         1 AO6       0.045367
     24 H4           1.7810     2.3300    -0.8780 h1         1 AO6       0.073700
     25 H5           4.3640     1.0920    -0.9450 ho         1 AO6       0.440000
     26 H6           3.2810     0.7890     1.3130 hc         1 AO6       0.054700
     27 H7           1.8730     1.7640     1.5730 hc         1 AO6       0.054700
     28 H8          -0.1660     2.3570     0.6190 hn         1 AO6       0.352000
     29 H9          -2.7740     3.3060     0.3120 ha         1 AO6       0.115000
     30 H10         -5.1120     2.5350    -0.1840 ha         1 AO6       0.114000
     31 H11         -5.5740     0.1180    -0.6120 ha         1 AO6       0.116000
     32 H12         -3.7040    -1.5560    -0.5500 ha         1 AO6       0.136000
     33 H13          3.5500    -1.9440     1.6430 hc         1 AO6       0.052700
     34 H14          3.5570    -2.7430     0.0640 hc         1 AO6       0.052700
     35 H15          4.0190    -1.0640     0.1820 hc         1 AO6       0.052700
@<TRIPOS>BOND
     1     1     2 1   
     2     1    21 1   
     3     1    22 1   
     4     1    23 1   
     5     2     3 1   
     6     2     4 1   
     7     2    24 1   
     8     3    25 1   
     9     4     5 1   
    10     4    26 1   
    11     4    27 1   
    12     5     6 1   
    13     5    19 2   
    14     6     7 1   
    15     6    14 2   
    16     7     8 1   
    17     7    28 1   
    18     8     9 ar  
    19     8    13 ar  
    20     9    10 ar  
    21     9    29 1   
    22    10    11 ar  
    23    10    30 1   
    24    11    12 ar  
    25    11    31 1   
    26    12    13 ar  
    27    12    32 1   
    28    13    14 1   
    29    14    15 1   
    30    15    16 2   
    31    15    17 1   
    32    17    18 2   
    33    17    19 1   
    34    19    20 1   
    35    20    33 1   
    36    20    34 1   
    37    20    35 1   
@<TRIPOS>SUBSTRUCTURE
     1 AO6         1 TEMP              0 ****  ****    0 ROOT
