@<TRIPOS>MOLECULE
AO7
   19    20     1     0     0
SMALL
No Charge or Current Charge


@<TRIPOS>ATOM
      1 C11          2.9270     0.3510    -0.0040 c          1 AO7       0.727200
      2 C01         -1.6940     1.8750     0.0390 ca         1 AO7      -0.148000
      3 C02         -3.0860     1.6860     0.0600 ca         1 AO7      -0.078000
      4 C03         -3.6120     0.3840     0.0820 ca         1 AO7      -0.178000
      5 C04         -2.7520    -0.7280     0.0830 ca         1 AO7      -0.033000
      6 C05         -1.3530    -0.5380     0.0630 ca         1 AO7      -0.236600
      7 C06         -0.8310     0.7660     0.0410 ca         1 AO7       0.154100
      8 C07         -0.4100    -1.6940     0.0640 c          1 AO7       0.594900
      9 C08          1.0050    -1.3390     0.0410 cc         1 AO7      -0.427200
     10 C09          1.4620    -0.0280     0.0200 cd         1 AO7       0.069900
     11 O10          0.5280     0.9830     0.0200 os         1 AO7      -0.170200
     12 O12          3.7690    -0.5410    -0.0040 o          1 AO7      -0.675500
     13 O13          3.2320     1.5380    -0.0210 o          1 AO7      -0.675500
     14 H011        -1.2820     2.8800     0.0220 ha         1 AO7       0.130000
     15 H021        -3.7540     2.5450     0.0590 ha         1 AO7       0.098000
     16 H031        -4.6900     0.2340     0.0980 ha         1 AO7       0.100000
     17 H041        -3.1720    -1.7320     0.1000 ha         1 AO7       0.123000
     18 H081         1.6890    -2.1790     0.0420 ha         1 AO7       0.228000
     19 O14         -0.7870    -2.8570     0.0820 o          1 AO7      -0.603100
@<TRIPOS>BOND
     1     1    10 1   
     2     1    12 1   
     3     1    13 1   
     4     2     3 ar  
     5     2     7 ar  
     6     2    14 1   
     7     3     4 ar  
     8     3    15 1   
     9     4     5 ar  
    10     4    16 1   
    11     5     6 ar  
    12     5    17 1   
    13     6     7 ar  
    14     6     8 1   
    15     7    11 1   
    16     8     9 1   
    17     8    19 2   
    18     9    10 2   
    19     9    18 1   
    20    10    11 1   
@<TRIPOS>SUBSTRUCTURE
     1 AO7         1 TEMP              0 ****  ****    0 ROOT
