@<TRIPOS>MOLECULE
AO7
   19    20     1     0     0
SMALL
abcg2


@<TRIPOS>ATOM
      1 C11          2.8470     0.3830    -0.0020 c          1 AO7       0.727200
      2 C01         -1.6430     1.8550     0.0390 ca         1 AO7      -0.148000
      3 C02         -3.0090     1.6690     0.0600 ca         1 AO7      -0.078000
      4 C03         -3.5570     0.3820     0.0820 ca         1 AO7      -0.178000
      5 C04         -2.7260    -0.7160     0.0830 ca         1 AO7      -0.033000
      6 C05         -1.3350    -0.5560     0.0620 ca         1 AO7      -0.236600
      7 C06         -0.8130     0.7360     0.0410 ca         1 AO7       0.154100
      8 C07         -0.4220    -1.7060     0.0610 c          1 AO7       0.594900
      9 C08          0.9760    -1.3430     0.0400 cc         1 AO7      -0.427200
     10 C09          1.3790    -0.0580     0.0210 cd         1 AO7       0.069900
     11 O10          0.5170     0.9650     0.0210 os         1 AO7      -0.170200
     12 O12          3.6720    -0.5430     0.0130 o          1 AO7      -0.675500
     13 O13          3.0400     1.6050    -0.0320 o          1 AO7      -0.675500
     14 H011        -1.2120     2.8480     0.0210 ha         1 AO7       0.130000
     15 H021        -3.6630     2.5310     0.0590 ha         1 AO7       0.098000
     16 H031        -4.6300     0.2540     0.0990 ha         1 AO7       0.100000
     17 H041        -3.1370    -1.7160     0.1000 ha         1 AO7       0.123000
     18 H081         1.7260    -2.1210     0.0390 ha         1 AO7       0.228000
     19 O14         -0.8230    -2.8640     0.0790 o          1 AO7      -0.603100
@<TRIPOS>BOND
     1     1    10 1   
     2     1    12 1   
     3     1    13 1   
     4     2     3 ar  
     5     2     7 ar  
     6     2    14 1   
     7     3     4 ar  
     8     3    15 1   
     9     4     5 ar  
    10     4    16 1   
    11     5     6 ar  
    12     5    17 1   
    13     6     7 ar  
    14     6     8 1   
    15     7    11 1   
    16     8     9 1   
    17     8    19 2   
    18     9    10 2   
    19     9    18 1   
    20    10    11 1   
@<TRIPOS>SUBSTRUCTURE
     1 AO7         1 TEMP              0 ****  ****    0 ROOT
