@<TRIPOS>MOLECULE
AO9
   43    46     1     0     0
SMALL
abcg2


@<TRIPOS>ATOM
      1 N1           2.5050    -0.3130     0.6100 n          1 AO9      -0.322000
      2 C2           2.0430    -0.8160    -0.6200 c          1 AO9       0.719400
      3 O2           1.4230    -0.0790    -1.3790 o          1 AO9      -0.577000
      4 N3           2.2970    -2.1020    -0.9200 nc         1 AO9      -0.777100
      5 C4           2.9740    -2.8800    -0.0970 cd         1 AO9       0.788500
      6 N4           3.1880    -4.1420    -0.4570 nv         1 AO9      -1.029200
      7 C5           3.4680    -2.4050     1.1550 cd         1 AO9      -0.482600
      8 C6           3.1970    -1.1210     1.4550 cc         1 AO9       0.032600
      9 C1           2.2580     1.0610     1.0170 c5         1 AO9       0.337700
     10 C7           2.8870     2.1480     0.1460 c5         1 AO9       0.081300
     11 O1           4.2220     2.3320     0.5240 oh         1 AO9      -0.714000
     12 C3           1.9700     3.3360     0.4720 c5         1 AO9       0.114300
     13 O3           2.2940     3.8920     1.7200 oh         1 AO9      -0.707000
     14 C30         -2.3600     1.6520    -0.6720 c          1 AO9       0.657700
     15 O31         -2.9450     2.7180    -0.5360 o          1 AO9      -0.598100
     16 C32         -3.1010     0.3810    -0.6490 cc         1 AO9      -0.272600
     17 N33         -2.6160    -0.8400    -0.2230 na         1 AO9      -0.009500
     18 C34         -3.6110    -1.7420    -0.4360 cc         1 AO9       0.442900
     19 N35         -4.6850    -1.2110    -0.9620 nd         1 AO9      -0.651000
     20 C36         -4.3740     0.1070    -1.0870 cd         1 AO9       0.321900
     21 S37         -3.1490    -3.3150     0.1030 ss         1 AO9       0.033600
     22 C38         -1.6260    -2.6700     0.6460 cc         1 AO9      -0.252000
     23 C39         -1.5010    -1.3550     0.4160 cd         1 AO9      -0.104000
     24 C8           0.6180     2.6450     0.5680 c5         1 AO9       0.147300
     25 O4           0.8890     1.3320     1.0640 os         1 AO9      -0.444000
     26 C9          -0.0860     2.6060    -0.7930 c3         1 AO9       0.093000
     27 N5          -1.0390     1.5320    -0.8780 ns         1 AO9      -0.495900
     28 HN4          2.8390    -4.4840    -1.3360 hn         1 AO9       0.505000
     29 HN4A         3.7070    -4.7760     0.1250 hn         1 AO9       0.505000
     30 H5           4.0210    -3.0330     1.8370 ha         1 AO9       0.207000
     31 H6           3.5210    -0.6770     2.3860 h4         1 AO9       0.208000
     32 H1           2.6890     1.1400     2.0220 h2         1 AO9       0.073700
     33 H2           2.7980     1.8950    -0.9130 h1         1 AO9       0.086700
     34 HO2          4.6990     2.7310    -0.2100 ho         1 AO9       0.520000
     35 H3           1.9830     4.0920    -0.3240 h1         1 AO9       0.062700
     36 HO3          3.2540     3.9830     1.7620 ho         1 AO9       0.520000
     37 H36         -5.0720     0.8130    -1.5120 h4         1 AO9       0.053100
     38 H38         -0.9050    -3.3120     1.1250 h4         1 AO9       0.162000
     39 H39         -0.6800    -0.7180     0.7050 h4         1 AO9       0.185000
     40 H4          -0.0330     3.1430     1.2910 h1         1 AO9       0.103700
     41 H7          -0.5810     3.5620    -0.9560 h1         1 AO9       0.065700
     42 H5'A         0.6330     2.4760    -1.6010 h1         1 AO9       0.065700
     43 HN5         -0.6410     0.6390    -1.1230 hn         1 AO9       0.345500
@<TRIPOS>BOND
     1     1     2 1   
     2     1     8 1   
     3     1     9 1   
     4     2     3 2   
     5     2     4 1   
     6     4     5 2   
     7     5     6 1   
     8     5     7 1   
     9     6    28 1   
    10     6    29 1   
    11     7     8 2   
    12     7    30 1   
    13     8    31 1   
    14     9    10 1   
    15     9    25 1   
    16     9    32 1   
    17    10    11 1   
    18    10    12 1   
    19    10    33 1   
    20    11    34 1   
    21    12    13 1   
    22    12    24 1   
    23    12    35 1   
    24    13    36 1   
    25    14    15 2   
    26    14    16 1   
    27    14    27 1   
    28    16    17 1   
    29    16    20 2   
    30    17    18 1   
    31    17    23 1   
    32    18    19 2   
    33    18    21 1   
    34    19    20 1   
    35    20    37 1   
    36    21    22 1   
    37    22    23 2   
    38    22    38 1   
    39    23    39 1   
    40    24    25 1   
    41    24    26 1   
    42    24    40 1   
    43    26    27 1   
    44    26    41 1   
    45    26    42 1   
    46    27    43 1   
@<TRIPOS>SUBSTRUCTURE
     1 AO9         1 TEMP              0 ****  ****    0 ROOT
