@<TRIPOS>MOLECULE
AO9
   43    46     1     0     0
SMALL
No Charge or Current Charge


@<TRIPOS>ATOM
      1 N1           2.7700    -0.2150     0.9010 n          1 AO9      -0.322000
      2 C2           2.1510    -1.0190    -0.0840 c          1 AO9       0.719400
      3 O2           1.2870    -0.6090    -0.8400 o          1 AO9      -0.577000
      4 N3           2.5690    -2.3160    -0.2190 nc         1 AO9      -0.777100
      5 C4           3.5050    -2.7800     0.5350 cd         1 AO9       0.788500
      6 N4           3.8310    -4.0360     0.3090 nv         1 AO9      -1.029200
      7 C5           4.1810    -2.0360     1.5190 cd         1 AO9      -0.482600
      8 C6           3.7930    -0.7300     1.6950 cc         1 AO9       0.032600
      9 C1           2.3150     1.1810     1.1540 c5         1 AO9       0.337700
     10 C7           2.9510     2.1180     0.0740 c5         1 AO9       0.081300
     11 O1           4.3250     2.4890     0.3290 oh         1 AO9      -0.714000
     12 C3           2.0030     3.3410     0.2370 c5         1 AO9       0.114300
     13 O3           2.3780     4.0940     1.3980 oh         1 AO9      -0.707000
     14 C30         -2.4140     1.6110    -0.4020 c          1 AO9       0.657700
     15 O31         -2.7570     2.7420    -0.0940 o          1 AO9      -0.598100
     16 C32         -3.2940     0.4380    -0.2830 cc         1 AO9      -0.272600
     17 N33         -3.1780    -0.9080    -0.5710 na         1 AO9      -0.009500
     18 C34         -4.3190    -1.5010    -0.2320 cc         1 AO9       0.442900
     19 N35         -5.2360    -0.6930     0.2550 nd         1 AO9      -0.651000
     20 C36         -4.5810     0.5420     0.2270 cd         1 AO9       0.321900
     21 S37         -4.3230    -3.1980    -0.5820 ss         1 AO9       0.033600
     22 C38         -2.6580    -2.9920    -1.2140 cc         1 AO9      -0.252000
     23 C39         -2.1810    -1.6800    -1.1430 cd         1 AO9      -0.104000
     24 C8           0.6160     2.6200     0.3850 c5         1 AO9       0.147300
     25 O4           0.8870     1.3640     1.0730 os         1 AO9      -0.444000
     26 C9          -0.0700     2.3170    -0.9750 c3         1 AO9       0.093000
     27 N5          -1.1630     1.3410    -0.8880 ns         1 AO9      -0.495900
     28 HN4          3.4860    -4.3790    -0.5760 hn         1 AO9       0.505000
     29 HN4A         4.7810    -4.2930     0.5390 hn         1 AO9       0.505000
     30 H5           4.9660    -2.4810     2.1180 ha         1 AO9       0.207000
     31 H6           4.2050    -0.0260     2.4160 h4         1 AO9       0.208000
     32 H1           2.6540     1.4680     2.1580 h2         1 AO9       0.073700
     33 H2           2.8440     1.6830    -0.9300 h1         1 AO9       0.086700
     34 HO2          4.8990     1.7540     0.0010 ho         1 AO9       0.520000
     35 H3           2.0260     3.9830    -0.6550 h1         1 AO9       0.062700
     36 HO3          3.3600     3.9780     1.4390 ho         1 AO9       0.520000
     37 H36         -5.0770     1.4400     0.5770 h4         1 AO9       0.053100
     38 H38         -2.1460    -3.8630    -1.6050 h4         1 AO9       0.162000
     39 H39         -1.2250    -1.2890    -1.4670 h4         1 AO9       0.185000
     40 H4          -0.0790     3.2160     0.9930 h1         1 AO9       0.103700
     41 H7          -0.4570     3.2540    -1.3970 h1         1 AO9       0.065700
     42 H5'A         0.6750     1.9270    -1.6810 h1         1 AO9       0.065700
     43 HN5         -0.9310     0.3680    -1.0300 hn         1 AO9       0.345500
@<TRIPOS>BOND
     1     1     2 1   
     2     1     8 1   
     3     1     9 1   
     4     2     3 2   
     5     2     4 1   
     6     4     5 2   
     7     5     6 1   
     8     5     7 1   
     9     6    28 1   
    10     6    29 1   
    11     7     8 2   
    12     7    30 1   
    13     8    31 1   
    14     9    10 1   
    15     9    25 1   
    16     9    32 1   
    17    10    11 1   
    18    10    12 1   
    19    10    33 1   
    20    11    34 1   
    21    12    13 1   
    22    12    24 1   
    23    12    35 1   
    24    13    36 1   
    25    14    15 2   
    26    14    16 1   
    27    14    27 1   
    28    16    17 1   
    29    16    20 2   
    30    17    18 1   
    31    17    23 1   
    32    18    19 2   
    33    18    21 1   
    34    19    20 1   
    35    20    37 1   
    36    21    22 1   
    37    22    23 2   
    38    22    38 1   
    39    23    39 1   
    40    24    25 1   
    41    24    26 1   
    42    24    40 1   
    43    26    27 1   
    44    26    41 1   
    45    26    42 1   
    46    27    43 1   
@<TRIPOS>SUBSTRUCTURE
     1 AO9         1 TEMP              0 ****  ****    0 ROOT
