@<TRIPOS>MOLECULE
AOA
   10     9     1     0     0
SMALL
No Charge or Current Charge


@<TRIPOS>ATOM
      1 C1          -0.6170    -0.0270     0.3030 c3         1 AOA       0.013600
      2 N1          -0.3650     0.2160     2.6590 n8         1 AOA      -0.778700
      3 O1           0.3200     0.2550     1.3740 os         1 AOA      -0.252300
      4 C2           0.0380    -0.0050    -1.1160 c          1 AOA       0.722000
      5 O2          -0.6850    -0.2330    -2.0780 o          1 AOA      -0.727000
      6 O3           1.2350     0.2350    -1.2300 o          1 AOA      -0.727000
      7 H1C1        -1.0670    -1.0190     0.4440 h1         1 AOA       0.009700
      8 H1C2        -1.4280     0.7140     0.3040 h1         1 AOA       0.009700
      9 H1N1         0.1630    -0.4700     3.2160 hn         1 AOA       0.365000
     10 H1N2        -0.1710     1.1320     3.0860 hn         1 AOA       0.365000
@<TRIPOS>BOND
     1     1     3 1   
     2     1     4 1   
     3     1     7 1   
     4     1     8 1   
     5     2     3 1   
     6     2     9 1   
     7     2    10 1   
     8     4     5 1   
     9     4     6 1   
@<TRIPOS>SUBSTRUCTURE
     1 AOA         1 TEMP              0 ****  ****    0 ROOT
