@<TRIPOS>MOLECULE
AOA
   10     9     1     0     0
SMALL
bcc


@<TRIPOS>ATOM
      1 C1          -0.6230    -0.0310     0.3140 c3         1 AOA      -0.009600
      2 N1          -0.3570     0.2420     2.5850 n8         1 AOA      -0.668300
      3 O1           0.3000     0.2580     1.3360 os         1 AOA      -0.229100
      4 C2           0.0550     0.0040    -1.0640 c          1 AOA       0.932600
      5 O2          -0.7050    -0.2670    -2.0160 o          1 AOA      -0.832300
      6 O3           1.2610     0.2920    -1.1190 o          1 AOA      -0.832300
      7 H1C1        -1.0790    -1.0210     0.4600 h1         1 AOA       0.009700
      8 H1C2        -1.4520     0.6910     0.3170 h1         1 AOA       0.009700
      9 H1N1         0.1090    -0.4840     3.1210 hn         1 AOA       0.309800
     10 H1N2        -0.0890     1.1150     3.0280 hn         1 AOA       0.309800
@<TRIPOS>BOND
     1     1     3 1   
     2     1     4 1   
     3     1     7 1   
     4     1     8 1   
     5     2     3 1   
     6     2     9 1   
     7     2    10 1   
     8     4     5 1   
     9     4     6 1   
@<TRIPOS>SUBSTRUCTURE
     1 AOA         1 TEMP              0 ****  ****    0 ROOT
