@<TRIPOS>MOLECULE
AOB
   32    34     1     0     0
SMALL
abcg2


@<TRIPOS>ATOM
      1 NAA         22.9790    15.8620    26.0000 n1         1 AOB      -0.454000
      2 CAD         23.2760    14.9540    25.3480 cg         1 AOB       0.356000
      3 CAR         23.6280    13.8510    24.5510 cc         1 AOB       0.000000
      4 CAU         24.8720    13.1400    24.5490 cc         1 AOB      -0.274600
      5 CAS         26.0940    13.2600    25.2680 c          1 AOB       0.619600
      6 OAC         26.3910    14.0790    26.1370 o          1 AOB      -0.527000
      7 NAM         27.0260    12.2840    24.8740 ns         1 AOB      -0.455400
      8 CAO         26.8170    11.3240    23.9200 cc         1 AOB       0.743800
      9 NAB         27.8140    10.4500    23.6960 nv         1 AOB      -1.049200
     10 NAL         25.6840    11.2170    23.2510 nd         1 AOB      -0.722100
     11 CAT         24.7560    12.1260    23.5940 cd         1 AOB       0.183400
     12 NAN         23.5110    12.2100    23.0410 na         1 AOB      -0.109000
     13 CAQ         22.7980    13.2510    23.6010 cd         1 AOB      -0.084800
     14 CAF         21.4610    13.6170    23.2440 cf         1 AOB      -0.143200
     15 CAE         20.6950    12.9920    22.3290 ce         1 AOB      -0.145200
     16 CAP         19.3380    13.3560    21.9420 ca         1 AOB      -0.059800
     17 CAJ         18.6820    12.5740    20.9810 ca         1 AOB      -0.094500
     18 CAH         17.3900    12.8750    20.5710 ca         1 AOB      -0.111000
     19 CAG         16.7240    13.9690    21.1140 ca         1 AOB      -0.101000
     20 CAI         17.3630    14.7570    22.0710 ca         1 AOB      -0.111000
     21 CAK         18.6520    14.4570    22.4820 ca         1 AOB      -0.094500
     22 HAM         27.9140    12.3110    25.3590 hn         1 AOB       0.325500
     23 HAB1        27.7200     9.8220    22.9140 hn         1 AOB       0.506500
     24 HAB2        28.7380    10.6110    24.0600 hn         1 AOB       0.506500
     25 HAN         23.1740    11.5890    22.3210 hn         1 AOB       0.364000
     26 HAF         21.0770    14.4760    23.7800 ha         1 AOB       0.199000
     27 HAE         21.0930    12.1270    21.8080 ha         1 AOB       0.161000
     28 HAJ         19.1980    11.7220    20.5560 ha         1 AOB       0.112500
     29 HAK         19.1290    15.0840    23.2240 ha         1 AOB       0.112500
     30 HAH         16.9030    12.2570    19.8270 ha         1 AOB       0.115000
     31 HAG         15.7170    14.2090    20.7960 ha         1 AOB       0.115000
     32 HAI         16.8510    15.6110    22.4980 ha         1 AOB       0.115000
@<TRIPOS>BOND
     1     1     2 3   
     2     2     3 1   
     3     3     4 1   
     4     3    13 2   
     5     4     5 1   
     6     4    11 2   
     7     5     6 2   
     8     5     7 1   
     9     7     8 1   
    10     7    22 1   
    11     8     9 1   
    12     8    10 2   
    13     9    23 1   
    14     9    24 1   
    15    10    11 1   
    16    11    12 1   
    17    12    13 1   
    18    12    25 1   
    19    13    14 1   
    20    14    15 2   
    21    14    26 1   
    22    15    16 1   
    23    15    27 1   
    24    16    17 ar  
    25    16    21 ar  
    26    17    18 ar  
    27    17    28 1   
    28    18    19 ar  
    29    18    30 1   
    30    19    20 ar  
    31    19    31 1   
    32    20    21 ar  
    33    20    32 1   
    34    21    29 1   
@<TRIPOS>SUBSTRUCTURE
     1 AOB         1 TEMP              0 ****  ****    0 ROOT
