@<TRIPOS>MOLECULE
AOB
   32    34     1     0     0
SMALL
No Charge or Current Charge


@<TRIPOS>ATOM
      1 NAA         23.1740    15.8130    25.9460 n1         1 AOB      -0.454000
      2 CAD         23.4250    14.8800    25.2890 cg         1 AOB       0.356000
      3 CAR         23.6950    13.7410    24.4670 cc         1 AOB       0.000000
      4 CAU         24.9140    13.0140    24.4740 cc         1 AOB      -0.274600
      5 CAS         26.1210    13.2280    25.2710 c          1 AOB       0.619600
      6 OAC         26.2930    14.1040    26.1030 o          1 AOB      -0.527000
      7 NAM         27.0670    12.3100    24.9750 ns         1 AOB      -0.455400
      8 CAO         26.8930    11.3320    24.0640 cc         1 AOB       0.743800
      9 NAB         27.9130    10.5160    23.8860 nv         1 AOB      -1.049200
     10 NAL         25.8300    11.0990    23.3310 nd         1 AOB      -0.722100
     11 CAT         24.8080    12.0050    23.5730 cd         1 AOB       0.183400
     12 NAN         23.5510    12.0750    22.9940 na         1 AOB      -0.109000
     13 CAQ         22.8430    13.1600    23.5460 cd         1 AOB      -0.084800
     14 CAF         21.4790    13.5780    23.2050 cf         1 AOB      -0.143200
     15 CAE         20.6470    12.9970    22.2940 ce         1 AOB      -0.145200
     16 CAP         19.2550    13.3740    21.9050 ca         1 AOB      -0.059800
     17 CAJ         18.5850    12.6110    20.9260 ca         1 AOB      -0.094500
     18 CAH         17.2740    12.9390    20.5370 ca         1 AOB      -0.111000
     19 CAG         16.6200    14.0340    21.1220 ca         1 AOB      -0.101000
     20 CAI         17.2780    14.8010    22.0970 ca         1 AOB      -0.111000
     21 CAK         18.5890    14.4740    22.4870 ca         1 AOB      -0.094500
     22 HAM         27.9280    12.3610    25.4930 hn         1 AOB       0.325500
     23 HAB1        27.7980     9.9240    23.0730 hn         1 AOB       0.506500
     24 HAB2        28.8380    10.9130    23.9940 hn         1 AOB       0.506500
     25 HAN         23.2110    11.4390    22.2860 hn         1 AOB       0.364000
     26 HAF         21.1140    14.4490    23.7520 ha         1 AOB       0.199000
     27 HAE         21.0260    12.1280    21.7560 ha         1 AOB       0.161000
     28 HAJ         19.0780    11.7590    20.4640 ha         1 AOB       0.112500
     29 HAK         19.0740    15.0840    23.2430 ha         1 AOB       0.112500
     30 HAH         16.7670    12.3430    19.7810 ha         1 AOB       0.115000
     31 HAG         15.6050    14.2880    20.8210 ha         1 AOB       0.115000
     32 HAI         16.7720    15.6500    22.5520 ha         1 AOB       0.115000
@<TRIPOS>BOND
     1     1     2 3   
     2     2     3 1   
     3     3     4 1   
     4     3    13 2   
     5     4     5 1   
     6     4    11 2   
     7     5     6 2   
     8     5     7 1   
     9     7     8 1   
    10     7    22 1   
    11     8     9 1   
    12     8    10 2   
    13     9    23 1   
    14     9    24 1   
    15    10    11 1   
    16    11    12 1   
    17    12    13 1   
    18    12    25 1   
    19    13    14 1   
    20    14    15 2   
    21    14    26 1   
    22    15    16 1   
    23    15    27 1   
    24    16    17 ar  
    25    16    21 ar  
    26    17    18 ar  
    27    17    28 1   
    28    18    19 ar  
    29    18    30 1   
    30    19    20 ar  
    31    19    31 1   
    32    20    21 ar  
    33    20    32 1   
    34    21    29 1   
@<TRIPOS>SUBSTRUCTURE
     1 AOB         1 TEMP              0 ****  ****    0 ROOT
