@<TRIPOS>MOLECULE
AOC
   37    39     1     0     0
SMALL
No Charge or Current Charge


@<TRIPOS>ATOM
      1 CAA         -4.6090    -3.5320     1.5720 c1         1 AOC      -0.205000
      2 CAE         -4.2680    -2.7120     0.7490 c1         1 AOC      -0.153100
      3 CAH         -3.8600    -1.7400    -0.2740 c3         1 AOC       0.247700
      4 O5          -3.3040    -0.5910     0.3850 os         1 AOC      -0.424000
      5 C5          -2.8550     0.4460    -0.5050 c3         1 AOC       0.144600
      6 C4          -2.2590     1.6050     0.3450 c5         1 AOC       0.167300
      7 O4          -0.9820     1.2130     0.9130 os         1 AOC      -0.429000
      8 C3          -1.9140     2.8870    -0.4760 c5         1 AOC       0.110300
      9 O3          -1.6900     4.0440     0.3380 oh         1 AOC      -0.700000
     10 C2          -0.5810     2.4430    -1.1440 c5         1 AOC       0.081300
     11 O2           0.1890     3.5920    -1.5560 oh         1 AOC      -0.691000
     12 C1           0.0850     1.5990     0.0120 c5         1 AOC       0.315300
     13 N9           0.8670     0.4140    -0.3490 na         1 AOC      -0.286300
     14 C8           0.7210    -0.3680    -1.5030 cc         1 AOC       0.410700
     15 N7           1.6130    -1.3760    -1.5330 nd         1 AOC      -0.553100
     16 C7           2.3310    -1.2040    -0.3450 ca         1 AOC      -0.101600
     17 C9           1.8900    -0.1240     0.3780 ca         1 AOC       0.144500
     18 N3           2.4480     0.2310     1.5520 nb         1 AOC      -0.216000
     19 C10          3.4730    -0.5490     1.9740 ca         1 AOC       0.184900
     20 N1           3.9820    -1.6330     1.3390 nb         1 AOC      -0.304000
     21 C6           3.4020    -1.9590     0.1740 ca         1 AOC       0.451900
     22 N6           3.9140    -3.0430    -0.4670 nv         1 AOC      -1.065900
     23 HAA         -4.9060    -4.2500     2.3110 ha         1 AOC       0.257000
     24 HAH1        -3.1190    -2.2070    -0.9360 h1         1 AOC       0.036700
     25 HAH2        -4.7360    -1.4610    -0.8740 h1         1 AOC       0.036700
     26 H5          -2.1040     0.0600    -1.2040 h1         1 AOC       0.023700
     27 H5'         -3.7000     0.8330    -1.0910 h1         1 AOC       0.023700
     28 H4          -2.9650     1.8340     1.1550 h1         1 AOC       0.107700
     29 H3          -2.6860     3.1000    -1.2300 h1         1 AOC       0.053700
     30 HO3         -0.9230     4.4870    -0.1070 ho         1 AOC       0.523000
     31 H2          -0.8080     1.8150    -2.0160 h1         1 AOC       0.049700
     32 HO2          0.8800     3.2830    -2.1910 ho         1 AOC       0.514000
     33 H1           0.7770     2.2490     0.5630 h2         1 AOC       0.124700
     34 H8          -0.0260    -0.1670    -2.2600 h5         1 AOC       0.061800
     35 H7           3.9350    -0.2750     2.9210 h5         1 AOC       0.046100
     36 H61          3.6400    -3.1670    -1.4390 hn         1 AOC       0.506000
     37 H62          4.8470    -3.3560    -0.2130 hn         1 AOC       0.506000
@<TRIPOS>BOND
     1     1     2 3   
     2     1    23 1   
     3     2     3 1   
     4     3     4 1   
     5     3    24 1   
     6     3    25 1   
     7     4     5 1   
     8     5     6 1   
     9     5    26 1   
    10     5    27 1   
    11     6     7 1   
    12     6     8 1   
    13     6    28 1   
    14     7    12 1   
    15     8     9 1   
    16     8    10 1   
    17     8    29 1   
    18     9    30 1   
    19    10    11 1   
    20    10    12 1   
    21    10    31 1   
    22    11    32 1   
    23    12    13 1   
    24    12    33 1   
    25    13    14 1   
    26    13    17 1   
    27    14    15 2   
    28    14    34 1   
    29    15    16 1   
    30    16    17 ar  
    31    16    21 ar  
    32    17    18 ar  
    33    18    19 ar  
    34    19    20 ar  
    35    19    35 1   
    36    20    21 ar  
    37    21    22 1   
    38    22    36 1   
    39    22    37 1   
@<TRIPOS>SUBSTRUCTURE
     1 AOC         1 TEMP              0 ****  ****    0 ROOT
