@<TRIPOS>MOLECULE
AOC
   37    39     1     0     0
SMALL
abcg2


@<TRIPOS>ATOM
      1 CAA         -4.9900    -3.4670     1.0950 c1         1 AOC      -0.205000
      2 CAE         -4.6940    -2.5380     0.3930 c1         1 AOC      -0.153100
      3 CAH         -4.3480    -1.4130    -0.4670 c3         1 AOC       0.247700
      4 O5          -3.5420    -0.5150     0.2540 os         1 AOC      -0.424000
      5 C5          -3.1600     0.5910    -0.5220 c3         1 AOC       0.144600
      6 C4          -2.2820     1.4880     0.3260 c5         1 AOC       0.167300
      7 O4          -1.1380     0.7680     0.7940 os         1 AOC      -0.429000
      8 C3          -1.7380     2.6760    -0.4570 c5         1 AOC       0.110300
      9 O3          -1.5050     3.7330     0.4370 oh         1 AOC      -0.700000
     10 C2          -0.4200     2.1030    -0.9860 c5         1 AOC       0.081300
     11 O2           0.5580     3.0480    -1.2980 oh         1 AOC      -0.691000
     12 C1           0.0340     1.2620     0.2060 c5         1 AOC       0.315300
     13 N9           0.8960     0.1640    -0.1420 na         1 AOC      -0.286300
     14 C8           0.6150    -0.8810    -0.9820 cc         1 AOC       0.410700
     15 N7           1.5730    -1.7550    -1.0570 nd         1 AOC      -0.553100
     16 C7           2.5440    -1.2700    -0.2190 ca         1 AOC      -0.101600
     17 C9           2.1410    -0.0810     0.3650 ca         1 AOC       0.144500
     18 N3           2.8350     0.6500     1.2330 nb         1 AOC      -0.216000
     19 C10          4.0100     0.1060     1.5010 ca         1 AOC       0.184900
     20 N1           4.5280    -1.0200     1.0180 nb         1 AOC      -0.304000
     21 C6           3.8180    -1.7440     0.1450 ca         1 AOC       0.451900
     22 N6           4.3330    -2.8760    -0.3360 nv         1 AOC      -1.065900
     23 HAA         -5.2460    -4.2900     1.7210 ha         1 AOC       0.257000
     24 HAH1        -3.8280    -1.7850    -1.3600 h1         1 AOC       0.036700
     25 HAH2        -5.2690    -0.9300    -0.8200 h1         1 AOC       0.036700
     26 H5          -2.6290     0.2650    -1.4300 h1         1 AOC       0.023700
     27 H5'         -4.0360     1.1640    -0.8560 h1         1 AOC       0.023700
     28 H4          -2.8550     1.8270     1.1940 h1         1 AOC       0.107700
     29 H3          -2.4090     2.9740    -1.2730 h1         1 AOC       0.053700
     30 HO3         -0.8790     4.3400     0.0240 ho         1 AOC       0.523000
     31 H2          -0.6370     1.4530    -1.8430 h1         1 AOC       0.049700
     32 HO2          0.3970     3.3800    -2.1880 ho         1 AOC       0.514000
     33 H1           0.6030     1.8830     0.9070 h2         1 AOC       0.124700
     34 H8          -0.3220    -0.9500    -1.5140 h5         1 AOC       0.061800
     35 H7           4.6350     0.6420     2.2060 h5         1 AOC       0.046100
     36 H61          3.8420    -3.4220    -1.0220 hn         1 AOC       0.506000
     37 H62          5.2630    -3.1570    -0.0790 hn         1 AOC       0.506000
@<TRIPOS>BOND
     1     1     2 3   
     2     1    23 1   
     3     2     3 1   
     4     3     4 1   
     5     3    24 1   
     6     3    25 1   
     7     4     5 1   
     8     5     6 1   
     9     5    26 1   
    10     5    27 1   
    11     6     7 1   
    12     6     8 1   
    13     6    28 1   
    14     7    12 1   
    15     8     9 1   
    16     8    10 1   
    17     8    29 1   
    18     9    30 1   
    19    10    11 1   
    20    10    12 1   
    21    10    31 1   
    22    11    32 1   
    23    12    13 1   
    24    12    33 1   
    25    13    14 1   
    26    13    17 1   
    27    14    15 2   
    28    14    34 1   
    29    15    16 1   
    30    16    17 ar  
    31    16    21 ar  
    32    17    18 ar  
    33    18    19 ar  
    34    19    20 ar  
    35    19    35 1   
    36    20    21 ar  
    37    21    22 1   
    38    22    36 1   
    39    22    37 1   
@<TRIPOS>SUBSTRUCTURE
     1 AOC         1 TEMP              0 ****  ****    0 ROOT
