@<TRIPOS>MOLECULE
AOD
   34    35     1     0     0
SMALL
No Charge or Current Charge


@<TRIPOS>ATOM
      1 OAA          1.4150     2.8780     1.8050 o          1 AOD      -0.725500
      2 OAC         -0.2140     2.8870     0.4070 o          1 AOD      -0.725500
      3 OAD         -6.2920     0.8480    -0.3970 o          1 AOD      -0.743500
      4 CAF          2.2700    -1.4020    -0.6650 ca         1 AOD      -0.052000
      5 CAG          0.9220    -1.0580    -0.8400 ca         1 AOD      -0.256000
      6 CAH          2.6330     0.6980     0.5090 ca         1 AOD      -0.016000
      7 CAI         -3.2140    -1.5160     1.8430 c6         1 AOD      -0.072400
      8 CAJ         -2.0310    -0.6210     1.3980 c6         1 AOD      -0.098400
      9 CAK         -4.5660    -0.9610     1.3290 c6         1 AOD      -0.057400
     10 CAL         -3.3600     0.1160    -0.6540 c6         1 AOD      -0.061400
     11 CAN          0.7820     2.3680     0.8930 c          1 AOD       0.722600
     12 CAO         -5.9080    -0.2550    -0.7570 c          1 AOD       0.719000
     13 CAP          3.1220    -0.5210     0.0130 ca         1 AOD      -0.120900
     14 CAQ          0.4200     0.1570    -0.3420 ca         1 AOD       0.396000
     15 CAR          1.2740     1.0550     0.3350 ca         1 AOD      -0.240600
     16 CAS         -2.0080    -0.4490    -0.1450 c6         1 AOD       0.233500
     17 CAT         -4.5550    -0.7810    -0.2170 c6         1 AOD      -0.184700
     18 HAF          2.6490    -2.3440    -1.0530 ha         1 AOD       0.086000
     19 HAG          0.2670    -1.7410    -1.3730 ha         1 AOD       0.098000
     20 HAH          3.3150     1.3680     1.0290 ha         1 AOD       0.134000
     21 HAI         -3.0660    -2.5370     1.4650 hc         1 AOD       0.011200
     22 HAIA        -3.2340    -1.5880     2.9390 hc         1 AOD       0.011200
     23 HAJ         -2.1110     0.3610     1.8850 hc         1 AOD       0.033200
     24 HAJA        -1.0890    -1.0670     1.7430 hc         1 AOD       0.033200
     25 HAK         -5.3780    -1.6410     1.6190 hc         1 AOD       0.035200
     26 HAKA        -4.7750     0.0010     1.8170 hc         1 AOD       0.035200
     27 HAL         -3.5040     1.1370    -0.2730 hc         1 AOD       0.056200
     28 HALA        -3.3390     0.1920    -1.7500 hc         1 AOD       0.056200
     29 HNAM        -1.0690     1.4460    -0.2870 hn         1 AOD       0.556000
     30 HAS         -1.8590    -1.4370    -0.6060 h1         1 AOD       0.031700
     31 HAT         -4.3990    -1.7750    -0.6610 hc         1 AOD       0.020700
     32 NAM         -0.9200     0.4560    -0.5350 nu         1 AOD      -0.961200
     33 BrAE         4.9610    -0.9780     0.2570 br         1 AOD      -0.207100
     34 OAB         -6.5350    -0.9690    -1.5260 o          1 AOD      -0.743500
@<TRIPOS>BOND
     1     1    11 1   
     2     2    11 1   
     3     3    12 1   
     4     4     5 ar  
     5     4    13 ar  
     6     4    18 1   
     7     5    14 ar  
     8     5    19 1   
     9     6    13 ar  
    10     6    15 ar  
    11     6    20 1   
    12     7     8 1   
    13     7     9 1   
    14     7    21 1   
    15     7    22 1   
    16     8    16 1   
    17     8    23 1   
    18     8    24 1   
    19     9    17 1   
    20     9    25 1   
    21     9    26 1   
    22    10    16 1   
    23    10    17 1   
    24    10    27 1   
    25    10    28 1   
    26    11    15 1   
    27    12    17 1   
    28    12    34 1   
    29    13    33 1   
    30    14    15 ar  
    31    14    32 1   
    32    16    30 1   
    33    16    32 1   
    34    17    31 1   
    35    29    32 1   
@<TRIPOS>SUBSTRUCTURE
     1 AOD         1 TEMP              0 ****  ****    0 ROOT
