@<TRIPOS>MOLECULE
AOD
   34    35     1     0     0
SMALL
bcc


@<TRIPOS>ATOM
      1 OAA          2.0000     3.5300     0.4150 o          1 AOD      -0.830800
      2 OAC         -0.1650     3.0490     0.4420 o          1 AOD      -0.830800
      3 OAD         -5.8100     1.2680    -1.0100 o          1 AOD      -0.848800
      4 CAF          2.1690    -1.4160    -0.1320 ca         1 AOD      -0.070000
      5 CAG          0.8290    -1.0880    -0.1070 ca         1 AOD      -0.274000
      6 CAH          2.7240     0.9010     0.1500 ca         1 AOD      -0.034000
      7 CAI         -3.3510    -2.0420     1.4140 c6         1 AOD      -0.072400
      8 CAJ         -2.1770    -1.0700     1.4310 c6         1 AOD      -0.098400
      9 CAK         -4.6430    -1.3430     1.0090 c6         1 AOD      -0.057400
     10 CAL         -3.3100     0.3290    -0.3110 c6         1 AOD      -0.061400
     11 CAN          1.0480     2.7330     0.3590 c          1 AOD       0.933200
     12 CAO         -5.8260     0.0480    -0.7480 c          1 AOD       0.929600
     13 CAP          3.1210    -0.4150    -0.0010 ca         1 AOD      -0.120900
     14 CAQ          0.3900     0.2450     0.0450 ca         1 AOD       0.257600
     15 CAR          1.3810     1.2600     0.1790 ca         1 AOD      -0.240600
     16 CAS         -2.0170    -0.3880     0.0700 c6         1 AOD       0.233500
     17 CAT         -4.4990    -0.6240    -0.3360 c6         1 AOD      -0.184700
     18 HAF          2.4570    -2.4530    -0.2520 ha         1 AOD       0.104000
     19 HAG          0.1090    -1.8880    -0.2090 ha         1 AOD       0.116000
     20 HAH          3.4580     1.6890     0.2510 ha         1 AOD       0.152000
     21 HAI         -3.1380    -2.8500     0.7030 hc         1 AOD       0.011200
     22 HAIA        -3.4630    -2.5140     2.3930 hc         1 AOD       0.011200
     23 HAJ         -2.3470    -0.2950     2.1870 hc         1 AOD       0.033200
     24 HAJA        -1.2560    -1.5870     1.7130 hc         1 AOD       0.033200
     25 HAK         -5.4640    -2.0590     0.9560 hc         1 AOD       0.035200
     26 HAKA        -4.9110    -0.6120     1.7820 hc         1 AOD       0.035200
     27 HAL         -3.4960     1.1310     0.4130 hc         1 AOD       0.056200
     28 HALA        -3.1870     0.8070    -1.2860 hc         1 AOD       0.056200
     29 HNAM        -1.1010     1.5400     0.2380 hn         1 AOD       0.500800
     30 HAS         -1.8370    -1.1650    -0.6850 h1         1 AOD       0.031700
     31 HAT         -4.2940    -1.3980    -1.0890 hc         1 AOD       0.020700
     32 NAM         -0.9260     0.5570     0.0370 nu         1 AOD      -0.767600
     33 BRAE         4.9650    -0.8550    -0.0250 br         1 AOD      -0.207100
     34 OAB         -6.8270    -0.6980    -0.7910 o          1 AOD      -0.848800
@<TRIPOS>BOND
     1     1    11 1   
     2     2    11 1   
     3     3    12 1   
     4     4     5 ar  
     5     4    13 ar  
     6     4    18 1   
     7     5    14 ar  
     8     5    19 1   
     9     6    13 ar  
    10     6    15 ar  
    11     6    20 1   
    12     7     8 1   
    13     7     9 1   
    14     7    21 1   
    15     7    22 1   
    16     8    16 1   
    17     8    23 1   
    18     8    24 1   
    19     9    17 1   
    20     9    25 1   
    21     9    26 1   
    22    10    16 1   
    23    10    17 1   
    24    10    27 1   
    25    10    28 1   
    26    11    15 1   
    27    12    17 1   
    28    12    34 1   
    29    13    33 1   
    30    14    15 ar  
    31    14    32 1   
    32    16    30 1   
    33    16    32 1   
    34    17    31 1   
    35    29    32 1   
@<TRIPOS>SUBSTRUCTURE
     1 AOD         1 TEMP              0 ****  ****    0 ROOT
