@<TRIPOS>MOLECULE
AOE
   93    96     1     0     0
SMALL
bcc


@<TRIPOS>ATOM
      1 C1           3.1800     1.2460    -6.2330 ca         1 AOE      -0.087000
      2 C2           4.5200     0.9540    -6.0350 ca         1 AOE      -0.224000
      3 C3           4.8720    -0.2340    -5.4020 ca         1 AOE       0.137100
      4 O3           6.1560    -0.5880    -5.1720 oh         1 AOE      -0.497100
      5 C4           3.8700    -1.0960    -4.9790 ca         1 AOE      -0.167000
      6 C5           2.5250    -0.7990    -5.1810 ca         1 AOE      -0.033300
      7 C6           1.4980    -1.7960    -4.7040 c6         1 AOE      -0.032100
      8 C7           0.1080    -1.1910    -4.5330 c6         1 AOE      -0.048700
      9 C8          -0.2230    -0.4420    -5.8280 c6         1 AOE      -0.041700
     10 C9           0.7020     0.7690    -6.0120 c6         1 AOE      -0.005400
     11 C10          2.1580     0.3900    -5.8260 ca         1 AOE      -0.101300
     12 C11          0.4140     1.4910    -7.3370 c6         1 AOE      -0.069400
     13 C12         -1.0610     1.8770    -7.4870 c6         1 AOE      -0.059400
     14 C13         -1.9770     0.6720    -7.2930 c5         1 AOE      -0.039000
     15 C14         -1.6600     0.0290    -5.9350 c5         1 AOE      -0.065700
     16 C15         -2.8000    -0.9680    -5.7200 c5         1 AOE      -0.065400
     17 C16         -4.0110    -0.2920    -6.4030 c5         1 AOE      -0.115400
     18 C17         -3.4570     0.9900    -7.0660 c5         1 AOE       0.148100
     19 C18         -1.8260    -0.3000    -8.4670 c3         1 AOE      -0.074100
     20 O17         -4.1080     1.3700    -8.2530 oh         1 AOE      -0.588800
     21 C19          0.0040    -0.3330    -3.2700 c3         1 AOE      -0.074400
     22 C20         -0.0800    -1.1480    -1.9840 c3         1 AOE      -0.075400
     23 C21         -0.1590    -0.2730    -0.7400 c3         1 AOE      -0.075400
     24 C22         -0.2560    -1.0670     0.5570 c3         1 AOE      -0.074400
     25 C23         -0.3470    -0.1830     1.7950 c3         1 AOE      -0.074400
     26 C24         -0.4010    -0.9720     3.0970 c3         1 AOE      -0.074400
     27 C25         -0.5330    -0.0880     4.3310 c3         1 AOE      -0.074400
     28 C26         -0.5030    -0.8700     5.6380 c3         1 AOE      -0.076400
     29 C27         -0.7010     0.0140     6.8620 c3         1 AOE      -0.065400
     30 C28         -0.5900    -0.7770     8.1570 c3         1 AOE      -0.152400
     31 C29         -0.8410     0.0610     9.3980 c          1 AOE       0.670100
     32 O29         -1.0420     1.2670     9.3150 o          1 AOE      -0.605100
     33 N29         -0.8530    -0.5720    10.5910 n          1 AOE      -0.481800
     34 C30         -0.5420    -1.9700    10.7960 c3         1 AOE       0.091300
     35 C31         -1.1020     0.1890    11.8040 c3         1 AOE       0.098000
     36 C32          0.1650     0.7630    12.4270 c3         1 AOE      -0.099400
     37 C33         -0.1150     1.4610    13.7530 c3         1 AOE      -0.073400
     38 C34          1.1400     2.0530    14.3790 c3         1 AOE      -0.088100
     39 HC1          2.9330     2.1820    -6.7180 ha         1 AOE       0.128000
     40 HC2          5.2810     1.6510    -6.3680 ha         1 AOE       0.130000
     41 HO3          6.7510     0.0980    -5.4910 ho         1 AOE       0.424000
     42 HC4          4.1440    -2.0180    -4.4770 ha         1 AOE       0.143000
     43 HC61         1.8450    -2.2560    -3.7750 hc         1 AOE       0.051700
     44 HC62         1.4400    -2.6130    -5.4330 hc         1 AOE       0.051700
     45 HC7         -0.6090    -2.0150    -4.4360 hc         1 AOE       0.048700
     46 HC8         -0.0290    -1.1510    -6.6450 hc         1 AOE       0.056700
     47 HC9          0.4520     1.4840    -5.2130 hc         1 AOE       0.052700
     48 H111         1.0150     2.4000    -7.4040 hc         1 AOE       0.042200
     49 H112         0.7350     0.8610    -8.1730 hc         1 AOE       0.042200
     50 H121        -1.3070     2.6380    -6.7370 hc         1 AOE       0.044700
     51 H122        -1.2230     2.3380    -8.4650 hc         1 AOE       0.044700
     52 HC41        -1.7950     0.8250    -5.1880 hc         1 AOE       0.044700
     53 H151        -2.9730    -1.1640    -4.6600 hc         1 AOE       0.044700
     54 H152        -2.5720    -1.9310    -6.1830 hc         1 AOE       0.044700
     55 H161        -4.8090    -0.0630    -5.6940 hc         1 AOE       0.046700
     56 H162        -4.4480    -0.9410    -7.1660 hc         1 AOE       0.046700
     57 HC71        -3.5060     1.8100    -6.3330 h1         1 AOE       0.026700
     58 H181        -0.8030    -0.6570    -8.5790 hc         1 AOE       0.036700
     59 H182        -2.4640    -1.1800    -8.3750 hc         1 AOE       0.036700
     60 H183        -2.0940     0.1930    -9.4020 hc         1 AOE       0.036700
     61 HO71        -5.0100     1.6210    -8.0340 ho         1 AOE       0.402000
     62 H191        -0.8830     0.3070    -3.3250 hc         1 AOE       0.043200
     63 H192         0.8580     0.3510    -3.2040 hc         1 AOE       0.043200
     64 H201         0.7860    -1.8150    -1.8990 hc         1 AOE       0.036200
     65 H202        -0.9590    -1.8010    -2.0280 hc         1 AOE       0.036200
     66 H211        -1.0240     0.3950    -0.8220 hc         1 AOE       0.037700
     67 H212         0.7220     0.3780    -0.6990 hc         1 AOE       0.037700
     68 H221         0.6150    -1.7270     0.6450 hc         1 AOE       0.036200
     69 H222        -1.1300    -1.7260     0.5160 hc         1 AOE       0.036200
     70 H231        -1.2330     0.4570     1.7180 hc         1 AOE       0.038200
     71 H232         0.5140     0.4950     1.8200 hc         1 AOE       0.038200
     72 H241         0.5020    -1.5870     3.1840 hc         1 AOE       0.036200
     73 H242        -1.2420    -1.6750     3.0630 hc         1 AOE       0.036200
     74 H251        -1.4660     0.4840     4.2680 hc         1 AOE       0.040200
     75 H252         0.2750     0.6520     4.3360 hc         1 AOE       0.040200
     76 H261         0.4520    -1.4020     5.7150 hc         1 AOE       0.034200
     77 H262        -1.2780    -1.6440     5.6170 hc         1 AOE       0.034200
     78 H271        -1.6790     0.4990     6.8040 hc         1 AOE       0.055700
     79 H272         0.0400     0.8180     6.8550 hc         1 AOE       0.055700
     80 H281         0.4070    -1.2270     8.2200 hc         1 AOE       0.054700
     81 H282        -1.2900    -1.6190     8.1390 hc         1 AOE       0.054700
     82 H301        -0.2210    -2.4540     9.8800 h1         1 AOE       0.037033
     83 H302         0.2670    -2.0750    11.5210 h1         1 AOE       0.037033
     84 H303        -1.4110    -2.5100    11.1780 h1         1 AOE       0.037033
     85 H311        -1.5930    -0.4810    12.5160 h1         1 AOE       0.054700
     86 H312        -1.8100     0.9900    11.5910 h1         1 AOE       0.054700
     87 H321         0.6240     1.4680    11.7280 hc         1 AOE       0.046700
     88 H322         0.8950    -0.0370    12.5870 hc         1 AOE       0.046700
     89 H331        -0.5730     0.7500    14.4470 hc         1 AOE       0.037200
     90 H332        -0.8560     2.2520    13.5970 hc         1 AOE       0.037200
     91 H341         0.9210     2.5450    15.3270 hc         1 AOE       0.032700
     92 H342         1.8870     1.2800    14.5700 hc         1 AOE       0.032700
     93 H343         1.5950     2.7940    13.7190 hc         1 AOE       0.032700
@<TRIPOS>BOND
     1     1     2 ar  
     2     1    11 ar  
     3     1    39 1   
     4     2     3 ar  
     5     2    40 1   
     6     3     4 1   
     7     3     5 ar  
     8     4    41 1   
     9     5     6 ar  
    10     5    42 1   
    11     6     7 1   
    12     6    11 ar  
    13     7     8 1   
    14     7    43 1   
    15     7    44 1   
    16     8     9 1   
    17     8    21 1   
    18     8    45 1   
    19     9    10 1   
    20     9    15 1   
    21     9    46 1   
    22    10    11 1   
    23    10    12 1   
    24    10    47 1   
    25    12    13 1   
    26    12    48 1   
    27    12    49 1   
    28    13    14 1   
    29    13    50 1   
    30    13    51 1   
    31    14    15 1   
    32    14    18 1   
    33    14    19 1   
    34    15    16 1   
    35    15    52 1   
    36    16    17 1   
    37    16    53 1   
    38    16    54 1   
    39    17    18 1   
    40    17    55 1   
    41    17    56 1   
    42    18    20 1   
    43    18    57 1   
    44    19    58 1   
    45    19    59 1   
    46    19    60 1   
    47    20    61 1   
    48    21    22 1   
    49    21    62 1   
    50    21    63 1   
    51    22    23 1   
    52    22    64 1   
    53    22    65 1   
    54    23    24 1   
    55    23    66 1   
    56    23    67 1   
    57    24    25 1   
    58    24    68 1   
    59    24    69 1   
    60    25    26 1   
    61    25    70 1   
    62    25    71 1   
    63    26    27 1   
    64    26    72 1   
    65    26    73 1   
    66    27    28 1   
    67    27    74 1   
    68    27    75 1   
    69    28    29 1   
    70    28    76 1   
    71    28    77 1   
    72    29    30 1   
    73    29    78 1   
    74    29    79 1   
    75    30    31 1   
    76    30    80 1   
    77    30    81 1   
    78    31    32 2   
    79    31    33 1   
    80    33    34 1   
    81    33    35 1   
    82    34    82 1   
    83    34    83 1   
    84    34    84 1   
    85    35    36 1   
    86    35    85 1   
    87    35    86 1   
    88    36    37 1   
    89    36    87 1   
    90    36    88 1   
    91    37    38 1   
    92    37    89 1   
    93    37    90 1   
    94    38    91 1   
    95    38    92 1   
    96    38    93 1   
@<TRIPOS>SUBSTRUCTURE
     1 AOE         1 TEMP              0 ****  ****    0 ROOT
