@<TRIPOS>MOLECULE
AOE
   93    96     1     0     0
SMALL
No Charge or Current Charge


@<TRIPOS>ATOM
      1 C1           3.2480     1.2450    -6.3090 ca         1 AOE      -0.069000
      2 C2           4.5940     0.9200    -6.0710 ca         1 AOE      -0.206000
      3 C3           4.9220    -0.2840    -5.4390 ca         1 AOE       0.137100
      4 O3           6.2260    -0.6030    -5.2090 oh         1 AOE      -0.536100
      5 C4           3.9080    -1.1590    -5.0340 ca         1 AOE      -0.149000
      6 C5           2.5540    -0.8440    -5.2610 ca         1 AOE      -0.033300
      7 C6           1.4890    -1.8420    -4.7870 c6         1 AOE      -0.032100
      8 C7           0.0740    -1.2250    -4.6340 c6         1 AOE      -0.048700
      9 C8          -0.2410    -0.4670    -5.9590 c6         1 AOE      -0.041700
     10 C9           0.7280     0.7460    -6.1710 c6         1 AOE      -0.005400
     11 C10          2.2100     0.3620    -5.9300 ca         1 AOE      -0.101300
     12 C11          0.4490     1.4290    -7.5550 c6         1 AOE      -0.069400
     13 C12         -1.0470     1.8380    -7.7290 c6         1 AOE      -0.059400
     14 C13         -2.0140     0.6380    -7.5010 c5         1 AOE      -0.039000
     15 C14         -1.7130     0.0240    -6.0980 c5         1 AOE      -0.065700
     16 C15         -2.8670    -1.0030    -5.9330 c5         1 AOE      -0.065400
     17 C16         -4.0930    -0.2630    -6.5770 c5         1 AOE      -0.115400
     18 C17         -3.4990     1.0430    -7.2090 c5         1 AOE       0.171300
     19 C18         -1.8780    -0.3440    -8.7220 c3         1 AOE      -0.074100
     20 O17         -4.2170     1.4530    -8.3710 oh         1 AOE      -0.651000
     21 C19         -0.0810    -0.3570    -3.3360 c3         1 AOE      -0.074400
     22 C20          0.0310    -1.1310    -2.0000 c3         1 AOE      -0.075400
     23 C21         -0.2540    -0.2460    -0.7670 c3         1 AOE      -0.075400
     24 C22         -0.1390    -1.0150     0.5680 c3         1 AOE      -0.074400
     25 C23         -0.4230    -0.1300     1.8010 c3         1 AOE      -0.074400
     26 C24         -0.3080    -0.8990     3.1360 c3         1 AOE      -0.074400
     27 C25         -0.5930    -0.0140     4.3690 c3         1 AOE      -0.074400
     28 C26         -0.4780    -0.7830     5.7040 c3         1 AOE      -0.076400
     29 C27         -0.7620     0.1010     6.9370 c3         1 AOE      -0.065400
     30 C28         -0.6450    -0.6750     8.2730 c3         1 AOE      -0.152400
     31 C29         -0.9150     0.1450     9.5550 c          1 AOE       0.603100
     32 O29         -1.1930     1.3360     9.4910 o          1 AOE      -0.605100
     33 N29         -0.8280    -0.5120    10.8080 n          1 AOE      -0.414800
     34 C30         -0.4920    -1.9500    10.9150 c3         1 AOE       0.091300
     35 C31         -1.0890     0.2160    12.0720 c3         1 AOE       0.098000
     36 C32          0.2070     0.6790    12.7700 c3         1 AOE      -0.099400
     37 C33         -0.0580     1.4310    14.0920 c3         1 AOE      -0.073400
     38 C34          1.2350     1.8940    14.7910 c3         1 AOE      -0.088100
     39 HC1          3.0250     2.1970    -6.7810 ha         1 AOE       0.110000
     40 HC2          5.3730     1.6140    -6.3770 ha         1 AOE       0.112000
     41 HO3          6.7860     0.1240    -5.5570 ho         1 AOE       0.463000
     42 HC4          4.1730    -2.0880    -4.5360 ha         1 AOE       0.125000
     43 HC61         1.8080    -2.3220    -3.8530 hc         1 AOE       0.051700
     44 HC62         1.4400    -2.6570    -5.5210 hc         1 AOE       0.051700
     45 HC7         -0.6390    -2.0540    -4.5290 hc         1 AOE       0.048700
     46 HC8         -0.0590    -1.1850    -6.7700 hc         1 AOE       0.056700
     47 HC9          0.4870     1.5010    -5.4100 hc         1 AOE       0.052700
     48 H111         1.0500     2.3400    -7.6620 hc         1 AOE       0.042200
     49 H112         0.7660     0.7650    -8.3700 hc         1 AOE       0.042200
     50 H121        -1.2800     2.6370    -7.0110 hc         1 AOE       0.044700
     51 H122        -1.2070     2.2730    -8.7250 hc         1 AOE       0.044700
     52 HC41        -1.8200     0.7990    -5.3290 hc         1 AOE       0.044700
     53 H151        -3.0450    -1.2500    -4.8800 hc         1 AOE       0.044700
     54 H152        -2.6510    -1.9470    -6.4460 hc         1 AOE       0.044700
     55 H161        -4.8580    -0.0240    -5.8300 hc         1 AOE       0.046700
     56 H162        -4.5760    -0.9000    -7.3270 hc         1 AOE       0.046700
     57 HC71        -3.5240     1.8520    -6.4650 h1         1 AOE       0.026700
     58 H181        -0.8700    -0.7580    -8.8240 hc         1 AOE       0.036700
     59 H182        -2.5630    -1.1970    -8.6650 hc         1 AOE       0.036700
     60 H183        -2.1030     0.1720    -9.6630 hc         1 AOE       0.036700
     61 HO71        -5.1390     1.6320    -8.0830 ho         1 AOE       0.441000
     62 H191        -1.0580     0.1370    -3.3390 hc         1 AOE       0.043200
     63 H192         0.6660     0.4470    -3.3260 hc         1 AOE       0.043200
     64 H201         1.0360    -1.5550    -1.8980 hc         1 AOE       0.036200
     65 H202        -0.6750    -1.9710    -2.0110 hc         1 AOE       0.036200
     66 H211        -1.2620     0.1780    -0.8510 hc         1 AOE       0.037700
     67 H212         0.4490     0.5970    -0.7590 hc         1 AOE       0.037700
     68 H221         0.8700    -1.4390     0.6540 hc         1 AOE       0.036200
     69 H222        -0.8410    -1.8580     0.5590 hc         1 AOE       0.036200
     70 H231        -1.4320     0.2940     1.7150 hc         1 AOE       0.038200
     71 H232         0.2790     0.7130     1.8090 hc         1 AOE       0.038200
     72 H241         0.7000    -1.3230     3.2210 hc         1 AOE       0.036200
     73 H242        -1.0110    -1.7420     3.1270 hc         1 AOE       0.036200
     74 H251        -1.6010     0.4100     4.2840 hc         1 AOE       0.040200
     75 H252         0.1100     0.8290     4.3770 hc         1 AOE       0.040200
     76 H261         0.5310    -1.2070     5.7890 hc         1 AOE       0.034200
     77 H262        -1.1800    -1.6260     5.6950 hc         1 AOE       0.034200
     78 H271        -1.7700     0.5250     6.8530 hc         1 AOE       0.055700
     79 H272        -0.0580     0.9430     6.9470 hc         1 AOE       0.055700
     80 H281         0.3390    -1.1460     8.3740 hc         1 AOE       0.054700
     81 H282        -1.3040    -1.5500     8.2840 hc         1 AOE       0.054700
     82 H301         0.4940    -2.1380    10.4720 h1         1 AOE       0.037033
     83 H302        -0.4630    -2.2590    11.9680 h1         1 AOE       0.037033
     84 H303        -1.2480    -2.5520    10.3960 h1         1 AOE       0.037033
     85 H311        -1.6450    -0.4440    12.7510 h1         1 AOE       0.054700
     86 H312        -1.7300     1.0870    11.8820 h1         1 AOE       0.054700
     87 H321         0.7660     1.3300    12.0880 hc         1 AOE       0.046700
     88 H322         0.8390    -0.1950    12.9710 hc         1 AOE       0.046700
     89 H331        -0.6180     0.7800    14.7750 hc         1 AOE       0.037200
     90 H332        -0.6890     2.3060    13.8930 hc         1 AOE       0.037200
     91 H341         0.9980     2.4220    15.7220 hc         1 AOE       0.032700
     92 H342         1.8730     1.0370    15.0350 hc         1 AOE       0.032700
     93 H343         1.8020     2.5760    14.1450 hc         1 AOE       0.032700
@<TRIPOS>BOND
     1     1     2 ar  
     2     1    11 ar  
     3     1    39 1   
     4     2     3 ar  
     5     2    40 1   
     6     3     4 1   
     7     3     5 ar  
     8     4    41 1   
     9     5     6 ar  
    10     5    42 1   
    11     6     7 1   
    12     6    11 ar  
    13     7     8 1   
    14     7    43 1   
    15     7    44 1   
    16     8     9 1   
    17     8    21 1   
    18     8    45 1   
    19     9    10 1   
    20     9    15 1   
    21     9    46 1   
    22    10    11 1   
    23    10    12 1   
    24    10    47 1   
    25    12    13 1   
    26    12    48 1   
    27    12    49 1   
    28    13    14 1   
    29    13    50 1   
    30    13    51 1   
    31    14    15 1   
    32    14    18 1   
    33    14    19 1   
    34    15    16 1   
    35    15    52 1   
    36    16    17 1   
    37    16    53 1   
    38    16    54 1   
    39    17    18 1   
    40    17    55 1   
    41    17    56 1   
    42    18    20 1   
    43    18    57 1   
    44    19    58 1   
    45    19    59 1   
    46    19    60 1   
    47    20    61 1   
    48    21    22 1   
    49    21    62 1   
    50    21    63 1   
    51    22    23 1   
    52    22    64 1   
    53    22    65 1   
    54    23    24 1   
    55    23    66 1   
    56    23    67 1   
    57    24    25 1   
    58    24    68 1   
    59    24    69 1   
    60    25    26 1   
    61    25    70 1   
    62    25    71 1   
    63    26    27 1   
    64    26    72 1   
    65    26    73 1   
    66    27    28 1   
    67    27    74 1   
    68    27    75 1   
    69    28    29 1   
    70    28    76 1   
    71    28    77 1   
    72    29    30 1   
    73    29    78 1   
    74    29    79 1   
    75    30    31 1   
    76    30    80 1   
    77    30    81 1   
    78    31    32 2   
    79    31    33 1   
    80    33    34 1   
    81    33    35 1   
    82    34    82 1   
    83    34    83 1   
    84    34    84 1   
    85    35    36 1   
    86    35    85 1   
    87    35    86 1   
    88    36    37 1   
    89    36    87 1   
    90    36    88 1   
    91    37    38 1   
    92    37    89 1   
    93    37    90 1   
    94    38    91 1   
    95    38    92 1   
    96    38    93 1   
@<TRIPOS>SUBSTRUCTURE
     1 AOE         1 TEMP              0 ****  ****    0 ROOT
