@<TRIPOS>MOLECULE
AOG
   49    49     1     0     0
SMALL
bcc


@<TRIPOS>ATOM
      1 C1          17.8050    63.4480    45.5060 c6         1 AOG       0.354900
      2 O1          17.6530    64.6180    44.8010 os         1 AOG      -0.381600
      3 C2          17.8960    62.2830    44.5320 c6         1 AOG       0.133100
      4 O2          16.6920    62.1620    43.8210 oh         1 AOG      -0.587800
      5 C3          18.1670    60.9970    45.3160 c6         1 AOG       0.119500
      6 C4          19.4120    61.1460    46.1910 c6         1 AOG       0.086100
      7 O4          20.5420    61.2190    45.3500 oh         1 AOG      -0.584800
      8 C5          19.2430    62.3960    47.0580 c6         1 AOG       0.136100
      9 O5          18.9920    63.5330    46.2570 os         1 AOG      -0.419600
     10 C6          20.4560    62.6800    47.9170 c3         1 AOG       0.146400
     11 O6          20.1400    63.7060    48.8260 oh         1 AOG      -0.583800
     12 N3          18.1670    59.8880    44.3820 n8         1 AOG      -0.898800
     13 C9          17.2250    65.7430    45.5490 c3         1 AOG       0.145400
     14 C10         16.7020    66.8210    44.6190 c3         1 AOG      -0.075400
     15 C11         15.4360    66.4570    43.8390 c3         1 AOG      -0.064400
     16 C12         15.6700    65.6670    42.5530 c3         1 AOG      -0.076400
     17 C13         14.3880    65.3530    41.7860 c3         1 AOG      -0.069400
     18 C14         13.4690    64.3630    42.4960 c3         1 AOG      -0.079400
     19 C7          12.2500    63.9820    41.6650 c3         1 AOG      -0.076400
     20 C8          11.3330    62.9950    42.3740 c3         1 AOG      -0.087100
     21 H1          16.9490    63.2820    46.1900 h2         1 AOG       0.023700
     22 H2          18.7390    62.4740    43.8490 h1         1 AOG       0.073700
     23 HO2         16.6800    61.2470    43.5050 ho         1 AOG       0.428000
     24 H3          17.3210    60.8480    45.9980 h1         1 AOG       0.064700
     25 H4          19.4720    60.2750    46.8570 h1         1 AOG       0.032700
     26 HO4         21.3060    60.8680    45.8140 ho         1 AOG       0.405000
     27 H5          18.3860    62.2080    47.7270 h1         1 AOG       0.047700
     28 H61         20.7300    61.7500    48.4340 h1         1 AOG       0.025700
     29 H62         21.3040    62.9530    47.2760 h1         1 AOG       0.025700
     30 HO6         20.9320    63.9170    49.3280 ho         1 AOG       0.406000
     31 HN31        18.0570    59.0100    44.8720 hn         1 AOG       0.355800
     32 HN32        19.0570    59.8440    43.8990 hn         1 AOG       0.355800
     33 H1'1        16.4300    65.4490    46.2490 h1         1 AOG       0.029200
     34 H1'2        18.0500    66.1440    46.1480 h1         1 AOG       0.029200
     35 H2'1        16.4940    67.6880    45.2530 hc         1 AOG       0.045700
     36 H2'2        17.4950    67.1370    43.9340 hc         1 AOG       0.045700
     37 H3'1        14.7550    65.9160    44.5030 hc         1 AOG       0.032700
     38 H3'2        14.9150    67.3820    43.5730 hc         1 AOG       0.032700
     39 H4'1        16.3390    66.2480    41.9090 hc         1 AOG       0.051700
     40 H4'2        16.1910    64.7340    42.7690 hc         1 AOG       0.051700
     41 H5'1        13.8400    66.2800    41.5860 hc         1 AOG       0.031700
     42 H5'2        14.6540    64.9420    40.8070 hc         1 AOG       0.031700
     43 H6'1        14.0370    63.4590    42.7430 hc         1 AOG       0.042200
     44 H6'2        13.1350    64.7780    43.4520 hc         1 AOG       0.042200
     45 H7'1        11.6890    64.8870    41.4110 hc         1 AOG       0.033700
     46 H7'2        12.5810    63.5560    40.7130 hc         1 AOG       0.033700
     47 H8'1        10.4670    62.7390    41.7620 hc         1 AOG       0.029367
     48 H8'2        11.8580    62.0670    42.6060 hc         1 AOG       0.029367
     49 H8'3        10.9630    63.4070    43.3150 hc         1 AOG       0.029367
@<TRIPOS>BOND
     1     1     2 1   
     2     1     3 1   
     3     1     9 1   
     4     1    21 1   
     5     2    13 1   
     6     3     4 1   
     7     3     5 1   
     8     3    22 1   
     9     4    23 1   
    10     5     6 1   
    11     5    12 1   
    12     5    24 1   
    13     6     7 1   
    14     6     8 1   
    15     6    25 1   
    16     7    26 1   
    17     8     9 1   
    18     8    10 1   
    19     8    27 1   
    20    10    11 1   
    21    10    28 1   
    22    10    29 1   
    23    11    30 1   
    24    12    31 1   
    25    12    32 1   
    26    13    14 1   
    27    13    33 1   
    28    13    34 1   
    29    14    15 1   
    30    14    35 1   
    31    14    36 1   
    32    15    16 1   
    33    15    37 1   
    34    15    38 1   
    35    16    17 1   
    36    16    39 1   
    37    16    40 1   
    38    17    18 1   
    39    17    41 1   
    40    17    42 1   
    41    18    19 1   
    42    18    43 1   
    43    18    44 1   
    44    19    20 1   
    45    19    45 1   
    46    19    46 1   
    47    20    47 1   
    48    20    48 1   
    49    20    49 1   
@<TRIPOS>SUBSTRUCTURE
     1 AOG         1 TEMP              0 ****  ****    0 ROOT
