@<TRIPOS>MOLECULE
AOG
   49    49     1     0     0
SMALL
No Charge or Current Charge


@<TRIPOS>ATOM
      1 C1          17.9700    63.1200    45.4300 c6         1 AOG       0.401300
      2 O1          17.6010    64.3100    44.7090 os         1 AOG      -0.428000
      3 C2          18.4620    61.9940    44.4580 c6         1 AOG       0.156300
      4 O2          17.5060    61.5450    43.4780 oh         1 AOG      -0.710000
      5 C3          18.8780    60.7480    45.2850 c6         1 AOG       0.119500
      6 C4          19.9850    61.1320    46.3180 c6         1 AOG       0.109300
      7 O4          21.2100    61.4620    45.6210 oh         1 AOG      -0.707000
      8 C5          19.4330    62.3190    47.1910 c6         1 AOG       0.159300
      9 O5          19.0340    63.4410    46.3540 os         1 AOG      -0.466000
     10 C6          20.4540    62.8230    48.2640 c3         1 AOG       0.169600
     11 O6          19.9230    63.8630    49.1100 oh         1 AOG      -0.706000
     12 N3          19.2780    59.6450    44.3580 n8         1 AOG      -1.009200
     13 C9          17.0000    65.3570    45.4840 c3         1 AOG       0.168600
     14 C10         16.6060    66.5130    44.5360 c3         1 AOG      -0.075400
     15 C11         15.3060    66.2920    43.7210 c3         1 AOG      -0.064400
     16 C12         15.3730    65.1480    42.6780 c3         1 AOG      -0.076400
     17 C13         14.1470    65.0710    41.7360 c3         1 AOG      -0.069400
     18 C14         12.8180    64.7220    42.4450 c3         1 AOG      -0.079400
     19 C7          11.6340    64.5700    41.4650 c3         1 AOG      -0.076400
     20 C8          10.3080    64.2250    42.1690 c3         1 AOG      -0.087100
     21 H1          17.0950    62.7560    45.9900 h2         1 AOG       0.023700
     22 H2          19.3540    62.3800    43.9420 h1         1 AOG       0.073700
     23 HO2         17.8090    60.6090    43.3400 ho         1 AOG       0.527000
     24 H3          17.9930    60.3990    45.8410 h1         1 AOG       0.064700
     25 H4          20.1560    60.2670    46.9770 h1         1 AOG       0.032700
     26 HO4         21.9560    61.3270    46.2510 ho         1 AOG       0.504000
     27 H5          18.5440    61.9630    47.7340 h1         1 AOG       0.047700
     28 H61         20.7570    61.9640    48.8770 h1         1 AOG       0.025700
     29 H62         21.3520    63.1880    47.7460 h1         1 AOG       0.025700
     30 HO6         20.6610    64.1690    49.6870 ho         1 AOG       0.505000
     31 HN31        19.3850    58.7790    44.9020 hn         1 AOG       0.411000
     32 HN32        20.2470    59.8410    44.0710 hn         1 AOG       0.411000
     33 H1'1        16.1110    64.9960    46.0190 h1         1 AOG       0.029200
     34 H1'2        17.7150    65.7360    46.2260 h1         1 AOG       0.029200
     35 H2'1        16.4670    67.4130    45.1480 hc         1 AOG       0.045700
     36 H2'2        17.4390    66.7320    43.8570 hc         1 AOG       0.045700
     37 H3'1        14.4810    66.1040    44.4200 hc         1 AOG       0.032700
     38 H3'2        15.0670    67.2270    43.2000 hc         1 AOG       0.032700
     39 H4'1        16.2730    65.2820    42.0640 hc         1 AOG       0.051700
     40 H4'2        15.4820    64.1860    43.1910 hc         1 AOG       0.051700
     41 H5'1        14.0380    66.0250    41.2060 hc         1 AOG       0.031700
     42 H5'2        14.3490    64.3100    40.9720 hc         1 AOG       0.031700
     43 H6'1        12.9430    63.7870    43.0060 hc         1 AOG       0.042200
     44 H6'2        12.5730    65.5040    43.1740 hc         1 AOG       0.042200
     45 H7'1        11.5060    65.5030    40.9020 hc         1 AOG       0.033700
     46 H7'2        11.8640    63.7850    40.7350 hc         1 AOG       0.033700
     47 H8'1         9.4990    64.1270    41.4350 hc         1 AOG       0.029367
     48 H8'2        10.3930    63.2770    42.7140 hc         1 AOG       0.029367
     49 H8'3        10.0310    65.0110    42.8820 hc         1 AOG       0.029367
@<TRIPOS>BOND
     1     1     2 1   
     2     1     3 1   
     3     1     9 1   
     4     1    21 1   
     5     2    13 1   
     6     3     4 1   
     7     3     5 1   
     8     3    22 1   
     9     4    23 1   
    10     5     6 1   
    11     5    12 1   
    12     5    24 1   
    13     6     7 1   
    14     6     8 1   
    15     6    25 1   
    16     7    26 1   
    17     8     9 1   
    18     8    10 1   
    19     8    27 1   
    20    10    11 1   
    21    10    28 1   
    22    10    29 1   
    23    11    30 1   
    24    12    31 1   
    25    12    32 1   
    26    13    14 1   
    27    13    33 1   
    28    13    34 1   
    29    14    15 1   
    30    14    35 1   
    31    14    36 1   
    32    15    16 1   
    33    15    37 1   
    34    15    38 1   
    35    16    17 1   
    36    16    39 1   
    37    16    40 1   
    38    17    18 1   
    39    17    41 1   
    40    17    42 1   
    41    18    19 1   
    42    18    43 1   
    43    18    44 1   
    44    19    20 1   
    45    19    45 1   
    46    19    46 1   
    47    20    47 1   
    48    20    48 1   
    49    20    49 1   
@<TRIPOS>SUBSTRUCTURE
     1 AOG         1 TEMP              0 ****  ****    0 ROOT
