@<TRIPOS>MOLECULE
AOI
   51    54     1     0     0
SMALL
bcc


@<TRIPOS>ATOM
      1 C1          -2.4730     1.5210    -0.2410 c6         1 AOI      -0.063400
      2 C2          -3.9620     1.4410     0.0810 c6         1 AOI      -0.111400
      3 C3          -4.5820     0.1080    -0.3250 c6         1 AOI       0.150100
      4 O3          -4.5990    -0.0550    -1.7340 oh         1 AOI      -0.600800
      5 C4          -3.7810    -1.0450     0.2600 c6         1 AOI      -0.063400
      6 C5          -2.2910    -0.9520    -0.0620 c6         1 AOI      -0.054700
      7 C6          -1.5220    -2.1600     0.4550 c6         1 AOI      -0.069400
      8 C7          -0.0810    -2.1280    -0.0320 c6         1 AOI      -0.070400
      9 C8           0.6190    -0.8210     0.3260 c6         1 AOI      -0.041700
     10 C9          -0.1980     0.4110    -0.1260 c6         1 AOI      -0.048700
     11 C10         -1.6570     0.3830     0.3980 c6         1 AOI      -0.029000
     12 C11          0.5420     1.7200     0.1860 c6         1 AOI      -0.072400
     13 C12          1.9720     1.7680    -0.3610 c6         1 AOI      -0.051400
     14 C13          2.7510     0.5440     0.0940 c5         1 AOI      -0.154000
     15 C14          1.9930    -0.7250    -0.3140 c5         1 AOI      -0.061700
     16 C15          3.0210    -1.8450    -0.1390 c5         1 AOI      -0.067400
     17 C16          4.3060    -1.2000    -0.6750 c5         1 AOI      -0.191400
     18 C17          4.0920     0.3040    -0.5640 c          1 AOI       0.580100
     19 O17          4.8670     1.1510    -0.9390 o          1 AOI      -0.514100
     20 C18          3.0570     0.6080     1.6030 c3         1 AOI      -0.078100
     21 C19         -1.6870     0.5400     1.9250 c3         1 AOI      -0.082100
     22 H1          -2.3330     1.4960    -1.3280 hc         1 AOI       0.042700
     23 H2          -2.0990     2.4920     0.0910 hc         1 AOI       0.042700
     24 H3          -4.1230     1.5830     1.1530 hc         1 AOI       0.041700
     25 H4          -4.4950     2.2650    -0.4060 hc         1 AOI       0.041700
     26 H5          -5.6080     0.0630     0.0660 h1         1 AOI       0.029700
     27 H6          -4.9880     0.7340    -2.1230 ho         1 AOI       0.400000
     28 H7          -3.9370    -1.0660     1.3430 hc         1 AOI       0.047200
     29 H8          -4.1760    -1.9930    -0.1180 hc         1 AOI       0.047200
     30 H9          -2.1950    -0.9680    -1.1560 hc         1 AOI       0.060700
     31 H10         -1.5550    -2.1930     1.5500 hc         1 AOI       0.039700
     32 H11         -2.0080    -3.0780     0.1090 hc         1 AOI       0.039700
     33 H12          0.4780    -2.9720     0.3820 hc         1 AOI       0.039200
     34 H13         -0.0680    -2.2570    -1.1220 hc         1 AOI       0.039200
     35 H14          0.7340    -0.7970     1.4160 hc         1 AOI       0.051700
     36 H15         -0.2740     0.3390    -1.2230 hc         1 AOI       0.045700
     37 H16         -0.0100     2.5650    -0.2310 hc         1 AOI       0.040700
     38 H17          0.5620     1.8830     1.2670 hc         1 AOI       0.040700
     39 H18          1.9440     1.7930    -1.4550 hc         1 AOI       0.049700
     40 H19          2.4600     2.6910    -0.0370 hc         1 AOI       0.049700
     41 H20          1.8210    -0.6400    -1.3990 hc         1 AOI       0.047700
     42 H21          3.1280    -2.1310     0.9100 hc         1 AOI       0.049200
     43 H22          2.7510    -2.7460    -0.6900 hc         1 AOI       0.049200
     44 H23          5.2170    -1.5030    -0.1540 hc         1 AOI       0.071200
     45 H24          4.4590    -1.4400    -1.7310 hc         1 AOI       0.071200
     46 H25          2.1470     0.6470     2.2000 hc         1 AOI       0.039700
     47 H26          3.6310    -0.2500     1.9540 hc         1 AOI       0.039700
     48 H27          3.6370     1.5050     1.8270 hc         1 AOI       0.039700
     49 H28         -2.6640     0.3080     2.3490 hc         1 AOI       0.031033
     50 H29         -0.9650    -0.1030     2.4270 hc         1 AOI       0.031033
     51 H30         -1.4570     1.5670     2.2150 hc         1 AOI       0.031033
@<TRIPOS>BOND
     1     1     2 1   
     2     1    11 1   
     3     1    22 1   
     4     1    23 1   
     5     2     3 1   
     6     2    24 1   
     7     2    25 1   
     8     3     4 1   
     9     3     5 1   
    10     3    26 1   
    11     4    27 1   
    12     5     6 1   
    13     5    28 1   
    14     5    29 1   
    15     6     7 1   
    16     6    11 1   
    17     6    30 1   
    18     7     8 1   
    19     7    31 1   
    20     7    32 1   
    21     8     9 1   
    22     8    33 1   
    23     8    34 1   
    24     9    10 1   
    25     9    15 1   
    26     9    35 1   
    27    10    11 1   
    28    10    12 1   
    29    10    36 1   
    30    11    21 1   
    31    12    13 1   
    32    12    37 1   
    33    12    38 1   
    34    13    14 1   
    35    13    39 1   
    36    13    40 1   
    37    14    15 1   
    38    14    18 1   
    39    14    20 1   
    40    15    16 1   
    41    15    41 1   
    42    16    17 1   
    43    16    42 1   
    44    16    43 1   
    45    17    18 1   
    46    17    44 1   
    47    17    45 1   
    48    18    19 2   
    49    20    46 1   
    50    20    47 1   
    51    20    48 1   
    52    21    49 1   
    53    21    50 1   
    54    21    51 1   
@<TRIPOS>SUBSTRUCTURE
     1 AOI         1 TEMP              0 ****  ****    0 ROOT
