@<TRIPOS>MOLECULE
AOI
   51    54     1     0     0
SMALL
No Charge or Current Charge


@<TRIPOS>ATOM
      1 C1          -2.5230     1.5670    -0.2010 c6         1 AOI      -0.063400
      2 C2          -4.0420     1.4710     0.1260 c6         1 AOI      -0.111400
      3 C3          -4.6630     0.1190    -0.3070 c6         1 AOI       0.173300
      4 O3          -4.7570     0.0510    -1.7350 oh         1 AOI      -0.663000
      5 C4          -3.8390    -1.0770     0.2400 c6         1 AOI      -0.063400
      6 C5          -2.3260    -0.9570    -0.1150 c6         1 AOI      -0.054700
      7 C6          -1.5300    -2.2060     0.3470 c6         1 AOI      -0.069400
      8 C7          -0.0720    -2.1420    -0.1620 c6         1 AOI      -0.070400
      9 C8           0.6420    -0.8330     0.2730 c6         1 AOI      -0.041700
     10 C9          -0.1920     0.4370    -0.1520 c6         1 AOI      -0.048700
     11 C10         -1.6790     0.3870     0.3990 c6         1 AOI      -0.029000
     12 C11          0.5800     1.7640     0.1870 c6         1 AOI      -0.072400
     13 C12          2.0320     1.7820    -0.3770 c6         1 AOI      -0.051400
     14 C13          2.8500     0.5380     0.0890 c5         1 AOI      -0.154000
     15 C14          2.0670    -0.7380    -0.3420 c5         1 AOI      -0.061700
     16 C15          3.0840    -1.8790    -0.0710 c5         1 AOI      -0.067400
     17 C16          4.4450    -1.2080    -0.4560 c5         1 AOI      -0.191400
     18 C17          4.1900     0.3060    -0.6560 c          1 AOI       0.580100
     19 O17          4.5130     0.9180    -1.6680 o          1 AOI      -0.514100
     20 C18          3.1470     0.6760     1.6240 c3         1 AOI      -0.078100
     21 C19         -1.7010     0.4920     1.9720 c3         1 AOI      -0.082100
     22 H1          -2.3930     1.5990    -1.2920 hc         1 AOI       0.042700
     23 H2          -2.1560     2.5310     0.1740 hc         1 AOI       0.042700
     24 H3          -4.2010     1.6140     1.2020 hc         1 AOI       0.041700
     25 H4          -4.5750     2.2990    -0.3600 hc         1 AOI       0.041700
     26 H5          -5.6760     0.0570     0.1190 h1         1 AOI       0.029700
     27 H6          -5.2800     0.8320    -2.0170 ho         1 AOI       0.439000
     28 H7          -3.9750    -1.1550     1.3260 hc         1 AOI       0.047200
     29 H8          -4.2440    -2.0110    -0.1730 hc         1 AOI       0.047200
     30 H9          -2.2700    -0.9480    -1.2140 hc         1 AOI       0.060700
     31 H10         -1.5470    -2.2990     1.4410 hc         1 AOI       0.039700
     32 H11         -2.0050    -3.1160    -0.0430 hc         1 AOI       0.039700
     33 H12          0.4780    -3.0150     0.2140 hc         1 AOI       0.039200
     34 H13         -0.0670    -2.2230    -1.2580 hc         1 AOI       0.039200
     35 H14          0.7490    -0.8570     1.3650 hc         1 AOI       0.051700
     36 H15         -0.2630     0.4070    -1.2500 hc         1 AOI       0.045700
     37 H16          0.0500     2.6270    -0.2340 hc         1 AOI       0.040700
     38 H17          0.6070     1.9310     1.2700 hc         1 AOI       0.040700
     39 H18          1.9790     1.8020    -1.4750 hc         1 AOI       0.049700
     40 H19          2.5400     2.7100    -0.0810 hc         1 AOI       0.049700
     41 H20          1.8890    -0.7020    -1.4250 hc         1 AOI       0.047700
     42 H21          3.0690    -2.1930     0.9800 hc         1 AOI       0.049200
     43 H22          2.8760    -2.7700    -0.6740 hc         1 AOI       0.049200
     44 H23          5.1160    -1.3230     0.4010 hc         1 AOI       0.071200
     45 H24          4.9120    -1.6380    -1.3490 hc         1 AOI       0.071200
     46 H25          2.2350     0.7070     2.2290 hc         1 AOI       0.039700
     47 H26          3.7510    -0.1500     2.0160 hc         1 AOI       0.039700
     48 H27          3.7040     1.5980     1.8310 hc         1 AOI       0.039700
     49 H28         -2.7040     0.3680     2.3890 hc         1 AOI       0.031033
     50 H29         -1.0730    -0.2600     2.4590 hc         1 AOI       0.031033
     51 H30         -1.3510     1.4720     2.3130 hc         1 AOI       0.031033
@<TRIPOS>BOND
     1     1     2 1   
     2     1    11 1   
     3     1    22 1   
     4     1    23 1   
     5     2     3 1   
     6     2    24 1   
     7     2    25 1   
     8     3     4 1   
     9     3     5 1   
    10     3    26 1   
    11     4    27 1   
    12     5     6 1   
    13     5    28 1   
    14     5    29 1   
    15     6     7 1   
    16     6    11 1   
    17     6    30 1   
    18     7     8 1   
    19     7    31 1   
    20     7    32 1   
    21     8     9 1   
    22     8    33 1   
    23     8    34 1   
    24     9    10 1   
    25     9    15 1   
    26     9    35 1   
    27    10    11 1   
    28    10    12 1   
    29    10    36 1   
    30    11    21 1   
    31    12    13 1   
    32    12    37 1   
    33    12    38 1   
    34    13    14 1   
    35    13    39 1   
    36    13    40 1   
    37    14    15 1   
    38    14    18 1   
    39    14    20 1   
    40    15    16 1   
    41    15    41 1   
    42    16    17 1   
    43    16    42 1   
    44    16    43 1   
    45    17    18 1   
    46    17    44 1   
    47    17    45 1   
    48    18    19 2   
    49    20    46 1   
    50    20    47 1   
    51    20    48 1   
    52    21    49 1   
    53    21    50 1   
    54    21    51 1   
@<TRIPOS>SUBSTRUCTURE
     1 AOI         1 TEMP              0 ****  ****    0 ROOT
