@<TRIPOS>MOLECULE
AOJ
   26    28     1     0     0
SMALL
bcc


@<TRIPOS>ATOM
      1 N1           3.2020     1.0210    -0.7460 ns         1 AOJ      -0.618500
      2 C4           1.8310     0.9690    -0.8000 c          1 AOJ       0.710500
      3 C5           0.2530    -1.9330     0.3830 cc         1 AOJ      -0.088100
      4 C6          -1.8790    -1.4130     0.0090 ca         1 AOJ      -0.064200
      5 C7          -3.2530    -1.4260    -0.2170 ca         1 AOJ      -0.117000
      6 C8          -3.8980    -0.2120    -0.3400 ca         1 AOJ      -0.145000
      7 C10         -1.8130     1.0160    -0.0210 ca         1 AOJ      -0.113000
      8 C11         -3.1670     0.9760    -0.2380 ca         1 AOJ       0.107900
      9 C9          -1.1490    -0.2100     0.1110 ca         1 AOJ      -0.059800
     10 N2          -0.9940    -2.4390     0.1760 na         1 AOJ      -0.163400
     11 C12          0.2150    -0.5650     0.3530 cd         1 AOJ      -0.146400
     12 C1           1.3440     0.3950     0.5230 c5         1 AOJ      -0.067500
     13 O2           1.1580     1.3400    -1.7270 o          1 AOJ      -0.562500
     14 C3           3.7490     0.4560     0.3810 c          1 AOJ       0.711500
     15 O1           4.9270     0.4270     0.6360 o          1 AOJ      -0.578500
     16 C2           2.6160    -0.1310     1.1860 c5         1 AOJ      -0.168400
     17 H4           3.7650     1.4260    -1.4840 hn         1 AOJ       0.342500
     18 H7          -3.8060    -2.3530    -0.2960 ha         1 AOJ       0.137000
     19 H8          -4.9650    -0.1720    -0.5140 ha         1 AOJ       0.149000
     20 H9          -1.2890     1.9610     0.0440 ha         1 AOJ       0.155000
     21 H6          -1.2220    -3.4190     0.1730 hn         1 AOJ       0.304700
     22 H1           0.9860     1.2600     1.0940 hc         1 AOJ       0.089700
     23 H3           2.7040     0.1450     2.2350 hc         1 AOJ       0.084700
     24 H2           2.7050    -1.2180     1.1320 hc         1 AOJ       0.084700
     25 H5           1.0850    -2.6000     0.5420 h4         1 AOJ       0.163000
     26 F1          -3.8410     2.1370    -0.3690 f          1 AOJ      -0.147900
@<TRIPOS>BOND
     1     1     2 1   
     2     1    14 1   
     3     1    17 1   
     4     2    12 1   
     5     2    13 2   
     6     3    10 1   
     7     3    11 2   
     8     3    25 1   
     9     4     5 ar  
    10     4     9 ar  
    11     4    10 1   
    12     5     6 ar  
    13     5    18 1   
    14     6     8 ar  
    15     6    19 1   
    16     7     8 ar  
    17     7     9 ar  
    18     7    20 1   
    19     8    26 1   
    20     9    11 1   
    21    10    21 1   
    22    11    12 1   
    23    12    16 1   
    24    12    22 1   
    25    14    15 2   
    26    14    16 1   
    27    16    23 1   
    28    16    24 1   
@<TRIPOS>SUBSTRUCTURE
     1 AOJ         1 TEMP              0 ****  ****    0 ROOT
