@<TRIPOS>MOLECULE
AOJ
   26    28     1     0     0
SMALL
No Charge or Current Charge


@<TRIPOS>ATOM
      1 N1           3.6480     0.3030    -0.3460 ns         1 AOJ      -0.484500
      2 C4           2.5660     0.2430    -1.1590 c          1 AOJ       0.568000
      3 C5           0.3650    -1.7080    -0.6310 cc         1 AOJ      -0.138100
      4 C6          -1.8570    -1.3360    -0.1880 ca         1 AOJ      -0.064200
      5 C7          -3.2390    -1.4780    -0.0010 ca         1 AOJ      -0.099000
      6 C8          -3.9690    -0.3360     0.4020 ca         1 AOJ      -0.127000
      7 C10         -1.9160     1.0140     0.4110 ca         1 AOJ      -0.095000
      8 C11         -3.3080     0.9000     0.6060 ca         1 AOJ       0.143000
      9 C9          -1.2290    -0.1380     0.0110 ca         1 AOJ      -0.059800
     10 N2          -0.9230    -2.2870    -0.5730 na         1 AOJ      -0.213700
     11 C12          0.1600    -0.3810    -0.2710 cd         1 AOJ      -0.146400
     12 C1           1.3720     0.5370    -0.2200 c5         1 AOJ      -0.067500
     13 O2           2.5990     0.0330    -2.3610 o          1 AOJ      -0.487000
     14 C3           3.5150     0.5620     0.9740 c          1 AOJ       0.569000
     15 O1           4.4050     0.9760     1.6970 o          1 AOJ      -0.503000
     16 C2           2.0070     0.4530     1.2150 c5         1 AOJ      -0.168400
     17 H4           4.5700     0.2760    -0.7530 hn         1 AOJ       0.342500
     18 H7          -3.7350    -2.4330    -0.1610 ha         1 AOJ       0.119000
     19 H8          -5.0420    -0.4040     0.5570 ha         1 AOJ       0.131000
     20 H9          -1.4010     1.9570     0.5670 ha         1 AOJ       0.137000
     21 H6          -1.1380    -3.2580    -0.7800 hn         1 AOJ       0.355000
     22 H1           1.0780     1.5690    -0.4390 hc         1 AOJ       0.089700
     23 H3           1.6600     1.1970     1.9400 hc         1 AOJ       0.084700
     24 H2           1.8350    -0.5410     1.6430 hc         1 AOJ       0.084700
     25 H5           1.2590    -2.2630    -0.9050 h4         1 AOJ       0.213000
     26 F1          -4.0190     1.9810     0.9920 f          1 AOJ      -0.183000
@<TRIPOS>BOND
     1     1     2 1   
     2     1    14 1   
     3     1    17 1   
     4     2    12 1   
     5     2    13 2   
     6     3    10 1   
     7     3    11 2   
     8     3    25 1   
     9     4     5 ar  
    10     4     9 ar  
    11     4    10 1   
    12     5     6 ar  
    13     5    18 1   
    14     6     8 ar  
    15     6    19 1   
    16     7     8 ar  
    17     7     9 ar  
    18     7    20 1   
    19     8    26 1   
    20     9    11 1   
    21    10    21 1   
    22    11    12 1   
    23    12    16 1   
    24    12    22 1   
    25    14    15 2   
    26    14    16 1   
    27    16    23 1   
    28    16    24 1   
@<TRIPOS>SUBSTRUCTURE
     1 AOJ         1 TEMP              0 ****  ****    0 ROOT
