@<TRIPOS>MOLECULE
AOK
   55    58     1     0     0
SMALL
No Charge or Current Charge


@<TRIPOS>ATOM
      1 Cl           4.0770    -2.2820    -0.7650 cl         1 AOK      -0.202000
      2 C24          3.3520    -0.7300    -0.3450 ca         1 AOK       0.125000
      3 C8           4.0930     0.2610     0.3480 cp         1 AOK      -0.025000
      4 C7           5.5140     0.0430     0.7420 cp         1 AOK      -0.040000
      5 C6           5.8110    -0.3260     2.0750 ca         1 AOK      -0.091000
      6 C5           7.1350    -0.5370     2.4900 ca         1 AOK      -0.116000
      7 C4           8.1860    -0.3780     1.5760 ca         1 AOK      -0.102000
      8 C3           7.9120    -0.0050     0.2490 ca         1 AOK      -0.113000
      9 C2           6.5860     0.2070    -0.1800 ca         1 AOK      -0.048300
     10 C1           6.3510     0.6310    -1.6290 c3         1 AOK      -0.035100
     11 C            6.2690     2.1610    -1.7850 c3         1 AOK      -0.086100
     12 C23          2.0130    -0.4990    -0.7050 ca         1 AOK      -0.085000
     13 C11          1.3840     0.7180    -0.3810 ca         1 AOK      -0.081300
     14 C10          2.1090     1.7030     0.3170 ca         1 AOK      -0.109000
     15 C9           3.4470     1.4740     0.6780 ca         1 AOK      -0.096000
     16 C12         -0.0660     0.9580    -0.7780 c3         1 AOK       0.206100
     17 N           -0.9710     0.2110     0.1130 n7         1 AOK      -0.868400
     18 C13         -2.4100     0.3890    -0.1630 c3         1 AOK       0.165800
     19 C14         -3.2420    -0.4630     0.8100 c3         1 AOK      -0.093700
     20 C15         -4.7150    -0.3480     0.5450 cc         1 AOK       0.416800
     21 N2          -5.4200    -1.1930    -0.3080 na         1 AOK      -0.315600
     22 C22         -6.7150    -0.7770    -0.2970 ca         1 AOK      -0.082200
     23 C16         -6.7760     0.2940     0.5460 ca         1 AOK       0.073400
     24 N1          -5.5260     0.5820     1.0880 nd         1 AOK      -0.582100
     25 C21         -7.8310    -1.2770    -0.9750 ca         1 AOK      -0.112000
     26 C20         -9.0660    -0.6280    -0.7620 ca         1 AOK      -0.093000
     27 C18         -9.1510     0.4890     0.1080 ca         1 AOK      -0.099300
     28 C19        -10.4890     1.1780     0.3330 c3         1 AOK      -0.042800
     29 C17         -7.9920     0.9560     0.7730 ca         1 AOK      -0.050000
     30 H1           5.0010    -0.4500     2.7900 ha         1 AOK       0.115000
     31 H2           7.3450    -0.8230     3.5190 ha         1 AOK       0.113000
     32 H3           9.2140    -0.5380     1.8940 ha         1 AOK       0.112000
     33 H4           8.7370     0.1230    -0.4480 ha         1 AOK       0.112000
     34 H5           7.1590     0.2550    -2.2690 hc         1 AOK       0.050700
     35 H6           5.4320     0.1830    -2.0250 hc         1 AOK       0.050700
     36 H7           5.4360     2.5680    -1.2000 hc         1 AOK       0.034367
     37 H8           7.1970     2.6330    -1.4420 hc         1 AOK       0.034367
     38 H9           6.1140     2.4310    -2.8360 hc         1 AOK       0.034367
     39 H10          1.4590    -1.2710    -1.2340 ha         1 AOK       0.144000
     40 H11          1.6360     2.6470     0.5800 ha         1 AOK       0.116000
     41 H12          3.9960     2.2440     1.2160 ha         1 AOK       0.121000
     42 H13         -0.2810     2.0350    -0.7300 h1         1 AOK       0.041700
     43 H14         -0.2060     0.6440    -1.8210 h1         1 AOK       0.041700
     44 H15         -0.7850     0.5200     1.0750 hn         1 AOK       0.408000
     45 H17         -2.7000     1.4440    -0.0540 h1         1 AOK       0.051200
     46 H18         -2.6440     0.0830    -1.1930 h1         1 AOK       0.051200
     47 H19         -2.9360    -1.5120     0.7280 hc         1 AOK       0.059700
     48 H20         -3.0310    -0.1520     1.8400 hc         1 AOK       0.059700
     49 H21         -5.0320    -1.9680    -0.8300 hn         1 AOK       0.355000
     50 H23         -7.7530    -2.1340    -1.6400 ha         1 AOK       0.116000
     51 H24         -9.9560    -0.9910    -1.2710 ha         1 AOK       0.111000
     52 H25        -11.0430     0.6980     1.1470 hc         1 AOK       0.040367
     53 H26        -10.3560     2.2350     0.5940 hc         1 AOK       0.040367
     54 H27        -11.1140     1.1390    -0.5680 hc         1 AOK       0.040367
     55 H28         -8.0350     1.8080     1.4470 ha         1 AOK       0.126000
@<TRIPOS>BOND
     1     1     2 1   
     2     2     3 ar  
     3     2    12 ar  
     4     3     4 1   
     5     3    15 ar  
     6     4     5 ar  
     7     4     9 ar  
     8     5     6 ar  
     9     5    30 1   
    10     6     7 ar  
    11     6    31 1   
    12     7     8 ar  
    13     7    32 1   
    14     8     9 ar  
    15     8    33 1   
    16     9    10 1   
    17    10    11 1   
    18    10    34 1   
    19    10    35 1   
    20    11    36 1   
    21    11    37 1   
    22    11    38 1   
    23    12    13 ar  
    24    12    39 1   
    25    13    14 ar  
    26    13    16 1   
    27    14    15 ar  
    28    14    40 1   
    29    15    41 1   
    30    16    17 1   
    31    16    42 1   
    32    16    43 1   
    33    17    18 1   
    34    17    44 1   
    35    18    19 1   
    36    18    45 1   
    37    18    46 1   
    38    19    20 1   
    39    19    47 1   
    40    19    48 1   
    41    20    21 1   
    42    20    24 2   
    43    21    22 1   
    44    21    49 1   
    45    22    23 ar  
    46    22    25 ar  
    47    23    24 1   
    48    23    29 ar  
    49    25    26 ar  
    50    25    50 1   
    51    26    27 ar  
    52    26    51 1   
    53    27    28 1   
    54    27    29 ar  
    55    28    52 1   
    56    28    53 1   
    57    28    54 1   
    58    29    55 1   
@<TRIPOS>SUBSTRUCTURE
     1 AOK         1 TEMP              0 ****  ****    0 ROOT
