@<TRIPOS>MOLECULE
AOK
   55    58     1     0     0
SMALL
bcc


@<TRIPOS>ATOM
      1 CL           3.7950    -2.0690    -0.6660 cl         1 AOK      -0.110400
      2 C24          3.2040    -0.5390    -0.0950 ca         1 AOK       0.033400
      3 C8           4.0940     0.3630     0.4830 cp         1 AOK      -0.025000
      4 C7           5.5370     0.0630     0.6580 cp         1 AOK      -0.040000
      5 C6           5.9870    -0.3310     1.9160 ca         1 AOK      -0.109000
      6 C5           7.3270    -0.6070     2.1390 ca         1 AOK      -0.134000
      7 C4           8.2310    -0.4890     1.0930 ca         1 AOK      -0.120000
      8 C3           7.7860    -0.0940    -0.1600 ca         1 AOK      -0.131000
      9 C2           6.4430     0.1880    -0.4010 ca         1 AOK      -0.048300
     10 C1           6.0170     0.6730    -1.7610 c3         1 AOK      -0.035100
     11 C            6.0260     2.1980    -1.8530 c3         1 AOK      -0.086100
     12 C23          1.8540    -0.2630    -0.2300 ca         1 AOK      -0.103000
     13 C11          1.3450     0.9510     0.2190 ca         1 AOK      -0.081300
     14 C10          2.2150     1.8590     0.8100 ca         1 AOK      -0.127000
     15 C9           3.5640     1.5680     0.9370 ca         1 AOK      -0.114000
     16 C12         -0.1150     1.2770     0.0480 c3         1 AOK       0.206100
     17 N           -0.9580     0.1310     0.3230 n7         1 AOK      -0.813200
     18 C13         -2.3650     0.4180     0.1220 c3         1 AOK       0.165800
     19 C14         -3.1930    -0.8280     0.3920 c3         1 AOK      -0.093700
     20 C15         -4.6540    -0.6040     0.2070 cc         1 AOK       0.416800
     21 N2          -5.5340    -1.6390     0.1620 na         1 AOK      -0.265300
     22 C22         -6.7880    -1.1090     0.0050 ca         1 AOK      -0.082200
     23 C16         -6.5820     0.2770    -0.0390 ca         1 AOK       0.073400
     24 N1          -5.2410     0.5570     0.0890 nd         1 AOK      -0.582100
     25 C21         -8.0540    -1.6710    -0.1030 ca         1 AOK      -0.130000
     26 C20         -9.1140    -0.7960    -0.2560 ca         1 AOK      -0.111000
     27 C18         -8.9410     0.6010    -0.3020 ca         1 AOK      -0.099300
     28 C19        -10.1440     1.4900    -0.4620 c3         1 AOK      -0.042800
     29 C17         -7.6680     1.1390    -0.1940 ca         1 AOK      -0.068000
     30 H1           5.2740    -0.4260     2.7260 ha         1 AOK       0.133000
     31 H2           7.6620    -0.9150     3.1220 ha         1 AOK       0.131000
     32 H3           9.2800    -0.7020     1.2510 ha         1 AOK       0.130000
     33 H4           8.4960    -0.0040    -0.9740 ha         1 AOK       0.130000
     34 H5           6.6940     0.2630    -2.5140 hc         1 AOK       0.050700
     35 H6           5.0220     0.3010    -2.0080 hc         1 AOK       0.050700
     36 H7           5.3240     2.6410    -1.1460 hc         1 AOK       0.034367
     37 H8           7.0170     2.5980    -1.6350 hc         1 AOK       0.034367
     38 H9           5.7430     2.5270    -2.8530 hc         1 AOK       0.034367
     39 H10          1.1920    -0.9940    -0.6760 ha         1 AOK       0.162000
     40 H11          1.8370     2.8040     1.1810 ha         1 AOK       0.134000
     41 H12          4.2250     2.2860     1.4050 ha         1 AOK       0.139000
     42 H13         -0.3620     2.1540     0.6650 h1         1 AOK       0.041700
     43 H14         -0.2920     1.5820    -0.9890 h1         1 AOK       0.041700
     44 H15         -0.8120    -0.1550     1.2850 hn         1 AOK       0.352800
     45 H17         -2.7240     1.2470     0.7480 h1         1 AOK       0.051200
     46 H18         -2.5070     0.7330    -0.9150 h1         1 AOK       0.051200
     47 H19         -2.8620    -1.6400    -0.2600 hc         1 AOK       0.059700
     48 H20         -3.0190    -1.1730     1.4170 hc         1 AOK       0.059700
     49 H21         -5.2990    -2.6160     0.2270 hn         1 AOK       0.304700
     50 H23         -8.2100    -2.7420    -0.0710 ha         1 AOK       0.134000
     51 H24        -10.1170    -1.1990    -0.3440 ha         1 AOK       0.129000
     52 H25        -10.8270     1.3890     0.3840 hc         1 AOK       0.040367
     53 H26         -9.8590     2.5380    -0.5320 hc         1 AOK       0.040367
     54 H27        -10.7100     1.2380    -1.3600 hc         1 AOK       0.040367
     55 H28         -7.5160     2.2120    -0.2280 ha         1 AOK       0.144000
@<TRIPOS>BOND
     1     1     2 1   
     2     2     3 ar  
     3     2    12 ar  
     4     3     4 1   
     5     3    15 ar  
     6     4     5 ar  
     7     4     9 ar  
     8     5     6 ar  
     9     5    30 1   
    10     6     7 ar  
    11     6    31 1   
    12     7     8 ar  
    13     7    32 1   
    14     8     9 ar  
    15     8    33 1   
    16     9    10 1   
    17    10    11 1   
    18    10    34 1   
    19    10    35 1   
    20    11    36 1   
    21    11    37 1   
    22    11    38 1   
    23    12    13 ar  
    24    12    39 1   
    25    13    14 ar  
    26    13    16 1   
    27    14    15 ar  
    28    14    40 1   
    29    15    41 1   
    30    16    17 1   
    31    16    42 1   
    32    16    43 1   
    33    17    18 1   
    34    17    44 1   
    35    18    19 1   
    36    18    45 1   
    37    18    46 1   
    38    19    20 1   
    39    19    47 1   
    40    19    48 1   
    41    20    21 1   
    42    20    24 2   
    43    21    22 1   
    44    21    49 1   
    45    22    23 ar  
    46    22    25 ar  
    47    23    24 1   
    48    23    29 ar  
    49    25    26 ar  
    50    25    50 1   
    51    26    27 ar  
    52    26    51 1   
    53    27    28 1   
    54    27    29 ar  
    55    28    52 1   
    56    28    53 1   
    57    28    54 1   
    58    29    55 1   
@<TRIPOS>SUBSTRUCTURE
     1 AOK         1 TEMP              0 ****  ****    0 ROOT
