@<TRIPOS>MOLECULE
AOL
   21    21     1     0     0
SMALL
bcc


@<TRIPOS>ATOM
      1 O4           1.0070    -0.7930     1.1290 oh         1 AOL      -0.596800
      2 C4           1.0130    -0.7390    -0.2800 c5         1 AOL       0.110600
      3 C3          -0.3110    -1.2340    -0.8600 c5         1 AOL       0.088100
      4 O3          -0.7260    -2.4660    -0.3370 oh         1 AOL      -0.598800
      5 C2          -1.3170    -0.0840    -0.5990 c5         1 AOL       0.088100
      6 O2          -2.0730    -0.4270     0.5400 oh         1 AOL      -0.598800
      7 C1          -0.4390     1.1900    -0.3910 c5         1 AOL       0.110600
      8 O1          -0.5700     1.7390     0.8940 oh         1 AOL      -0.596800
      9 C5           1.0020     0.7190    -0.7120 c5         1 AOL       0.129500
     10 N5           2.0960     1.5020    -0.1830 n8         1 AOL      -0.859800
     11 HO4          0.7420    -1.6820     1.3890 ho         1 AOL       0.425000
     12 H4           1.8720    -1.2860    -0.6920 h1         1 AOL       0.070700
     13 H3          -0.1780    -1.3310    -1.9440 h1         1 AOL       0.056700
     14 HO3         -1.4720    -2.2860     0.2510 ho         1 AOL       0.428500
     15 H2          -1.9730     0.0410    -1.4650 h1         1 AOL       0.056700
     16 HO2         -2.9120     0.0420     0.5170 ho         1 AOL       0.428500
     17 H1          -0.7390     1.9850    -1.0780 h1         1 AOL       0.070700
     18 HO1         -0.4510     1.0280     1.5340 ho         1 AOL       0.425000
     19 H5           1.1040     0.7120    -1.8030 h1         1 AOL       0.060700
     20 HN51         2.0990     2.4130    -0.6250 hn         1 AOL       0.350300
     21 HN52         1.9460     1.6800     0.8020 hn         1 AOL       0.350300
@<TRIPOS>BOND
     1     1     2 1   
     2     1    11 1   
     3     2     3 1   
     4     2     9 1   
     5     2    12 1   
     6     3     4 1   
     7     3     5 1   
     8     3    13 1   
     9     4    14 1   
    10     5     6 1   
    11     5     7 1   
    12     5    15 1   
    13     6    16 1   
    14     7     8 1   
    15     7     9 1   
    16     7    17 1   
    17     8    18 1   
    18     9    10 1   
    19     9    19 1   
    20    10    20 1   
    21    10    21 1   
@<TRIPOS>SUBSTRUCTURE
     1 AOL         1 TEMP              0 ****  ****    0 ROOT
