@<TRIPOS>MOLECULE
AOL
   21    21     1     0     0
SMALL
No Charge or Current Charge


@<TRIPOS>ATOM
      1 O4           0.9900    -0.6310     1.2550 oh         1 AOL      -0.719000
      2 C4           1.0070    -0.6740    -0.1910 c5         1 AOL       0.133800
      3 C3          -0.2860    -1.3060    -0.8070 c5         1 AOL       0.111300
      4 O3          -0.7890    -2.4230    -0.0700 oh         1 AOL      -0.721000
      5 C2          -1.3470    -0.1450    -0.8350 c5         1 AOL       0.111300
      6 O2          -2.4020    -0.3550     0.1180 oh         1 AOL      -0.721000
      7 C1          -0.5480     1.1560    -0.4650 c5         1 AOL       0.133800
      8 O1          -0.6640     1.4440     0.9410 oh         1 AOL      -0.719000
      9 C5           0.9270     0.7550    -0.8310 c5         1 AOL       0.129500
     10 N5           1.9490     1.6900    -0.3040 n8         1 AOL      -0.970200
     11 HO4          0.8220    -1.5640     1.5390 ho         1 AOL       0.524000
     12 H4           1.9020    -1.2070    -0.5430 h1         1 AOL       0.070700
     13 H3          -0.0710    -1.6150    -1.8400 h1         1 AOL       0.056700
     14 HO3         -1.6650    -2.0760     0.2490 ho         1 AOL       0.527500
     15 H2          -1.7650    -0.0550    -1.8480 h1         1 AOL       0.056700
     16 HO2         -2.2600     0.3810     0.7710 ho         1 AOL       0.527500
     17 H1          -0.8890     2.0140    -1.0640 h1         1 AOL       0.070700
     18 HO1         -0.0170     0.7990     1.3470 ho         1 AOL       0.524000
     19 H5           1.0470     0.7080    -1.9250 h1         1 AOL       0.060700
     20 HN51         1.4710     2.5400     0.0200 hn         1 AOL       0.405500
     21 HN52         2.3090     1.2890     0.5710 hn         1 AOL       0.405500
@<TRIPOS>BOND
     1     1     2 1   
     2     1    11 1   
     3     2     3 1   
     4     2     9 1   
     5     2    12 1   
     6     3     4 1   
     7     3     5 1   
     8     3    13 1   
     9     4    14 1   
    10     5     6 1   
    11     5     7 1   
    12     5    15 1   
    13     6    16 1   
    14     7     8 1   
    15     7     9 1   
    16     7    17 1   
    17     8    18 1   
    18     9    10 1   
    19     9    19 1   
    20    10    20 1   
    21    10    21 1   
@<TRIPOS>SUBSTRUCTURE
     1 AOL         1 TEMP              0 ****  ****    0 ROOT
