@<TRIPOS>MOLECULE
AOM
   53    56     1     0     0
SMALL
abcg2


@<TRIPOS>ATOM
      1 C1           1.4700    -0.5280    -2.4340 c6         1 AOM      -0.065400
      2 C10          0.3780     0.1940    -1.6270 c6         1 AOM      -0.030000
      3 C11          1.7210    -0.0350     0.5670 c6         1 AOM      -0.071400
      4 C12          1.7400    -0.5440     2.0110 c6         1 AOM      -0.059400
      5 C13          0.5590    -0.0010     2.8060 c5         1 AOM      -0.038000
      6 C14         -0.7320    -0.3530     2.0570 c5         1 AOM      -0.066700
      7 C15         -1.8450    -0.0500     3.0660 c5         1 AOM      -0.065400
      8 C16         -1.1950    -0.3490     4.4370 c5         1 AOM      -0.116400
      9 C17          0.2760    -0.7080     4.1340 c5         1 AOM       0.170300
     10 C18          0.7190     1.5060     3.0370 c3         1 AOM      -0.073100
     11 C19          0.6160     1.7080    -1.7020 c3         1 AOM      -0.082100
     12 C2           1.3960    -0.2490    -3.9330 c6         1 AOM      -0.112400
     13 C3           0.0320    -0.6190    -4.5010 c6         1 AOM       0.172300
     14 C4          -1.0750     0.0840    -3.7360 c6         1 AOM      -0.069400
     15 C5          -0.9850    -0.2090    -2.2400 c6         1 AOM      -0.054700
     16 C6          -2.1590     0.3810    -1.4710 c6         1 AOM      -0.068400
     17 C7          -2.1330    -0.0740    -0.0190 c6         1 AOM      -0.070400
     18 C8          -0.8050     0.2420     0.6610 c6         1 AOM      -0.043700
     19 C9           0.3910    -0.2930    -0.1560 c6         1 AOM      -0.047700
     20 O3          -0.0920    -0.2830    -5.8700 oh         1 AOM      -0.661000
     21 O17          1.1910    -0.3410     5.1380 oh         1 AOM      -0.651000
     22 HC11         1.3810    -1.6080    -2.2650 hc         1 AOM       0.040200
     23 HC12         2.4630    -0.2450    -2.0770 hc         1 AOM       0.040200
     24 H111         1.9430     1.0360     0.5570 hc         1 AOM       0.040200
     25 H112         2.5370    -0.5120     0.0210 hc         1 AOM       0.040200
     26 H121         2.6910    -0.2720     2.4800 hc         1 AOM       0.043200
     27 H122         1.6950    -1.6400     2.0110 hc         1 AOM       0.043200
     28 H14C        -0.7210    -1.4460     1.9230 hc         1 AOM       0.042700
     29 H151        -2.1600     0.9950     3.0030 hc         1 AOM       0.044200
     30 H152        -2.7330    -0.6560     2.8850 hc         1 AOM       0.044200
     31 H161        -1.2300     0.5280     5.0870 hc         1 AOM       0.046200
     32 H162        -1.7020    -1.1560     4.9680 hc         1 AOM       0.046200
     33 H17C         0.3420    -1.7910     3.9450 h1         1 AOM       0.026700
     34 H181         0.7880     2.0610     2.1020 hc         1 AOM       0.036033
     35 H182        -0.1120     1.9350     3.5980 hc         1 AOM       0.036033
     36 H183         1.6310     1.7110     3.5990 hc         1 AOM       0.036033
     37 H191         0.4120     2.1110    -2.6940 hc         1 AOM       0.033367
     38 H192        -0.0060     2.2650    -1.0020 hc         1 AOM       0.033367
     39 H193         1.6550     1.9490    -1.4710 hc         1 AOM       0.033367
     40 HC21         2.1790    -0.8180    -4.4460 hc         1 AOM       0.044200
     41 HC22         1.5980     0.8070    -4.1360 hc         1 AOM       0.044200
     42 HC3         -0.1040    -1.7040    -4.3640 h1         1 AOM       0.024700
     43 HC41        -2.0490    -0.2530    -4.1080 hc         1 AOM       0.052700
     44 HC42        -1.0270     1.1620    -3.9210 hc         1 AOM       0.052700
     45 HC5         -1.0540    -1.3010    -2.1260 hc         1 AOM       0.041700
     46 HC61        -3.0980     0.0680    -1.9400 hc         1 AOM       0.041200
     47 HC62        -2.1390     1.4750    -1.5290 hc         1 AOM       0.041200
     48 HC71        -2.3070    -1.1570     0.0200 hc         1 AOM       0.038700
     49 HC72        -2.9540     0.3870     0.5370 hc         1 AOM       0.038700
     50 HC8         -0.7280     1.3330     0.7430 hc         1 AOM       0.053700
     51 HC9          0.2610    -1.3870    -0.2030 hc         1 AOM       0.039700
     52 HO3          0.6270    -0.7070    -6.3490 ho         1 AOM       0.440000
     53 HO17         0.9770    -0.8390     5.9330 ho         1 AOM       0.441000
@<TRIPOS>BOND
     1     1     2 1   
     2     1    12 1   
     3     1    22 1   
     4     1    23 1   
     5     2    11 1   
     6     2    15 1   
     7     2    19 1   
     8     3     4 1   
     9     3    19 1   
    10     3    24 1   
    11     3    25 1   
    12     4     5 1   
    13     4    26 1   
    14     4    27 1   
    15     5     6 1   
    16     5     9 1   
    17     5    10 1   
    18     6     7 1   
    19     6    18 1   
    20     6    28 1   
    21     7     8 1   
    22     7    29 1   
    23     7    30 1   
    24     8     9 1   
    25     8    31 1   
    26     8    32 1   
    27     9    21 1   
    28     9    33 1   
    29    10    34 1   
    30    10    35 1   
    31    10    36 1   
    32    11    37 1   
    33    11    38 1   
    34    11    39 1   
    35    12    13 1   
    36    12    40 1   
    37    12    41 1   
    38    13    14 1   
    39    13    20 1   
    40    13    42 1   
    41    14    15 1   
    42    14    43 1   
    43    14    44 1   
    44    15    16 1   
    45    15    45 1   
    46    16    17 1   
    47    16    46 1   
    48    16    47 1   
    49    17    18 1   
    50    17    48 1   
    51    17    49 1   
    52    18    19 1   
    53    18    50 1   
    54    19    51 1   
    55    20    52 1   
    56    21    53 1   
@<TRIPOS>SUBSTRUCTURE
     1 AOM         1 TEMP              0 ****  ****    0 ROOT
