@<TRIPOS>MOLECULE
AOM
   53    56     1     0     0
SMALL
No Charge or Current Charge


@<TRIPOS>ATOM
      1 C1           1.5130    -0.5010    -2.5010 c6         1 AOM      -0.065400
      2 C10          0.3810     0.1960    -1.6650 c6         1 AOM      -0.030000
      3 C11          1.7750    -0.0280     0.5820 c6         1 AOM      -0.071400
      4 C12          1.7640    -0.5540     2.0490 c6         1 AOM      -0.059400
      5 C13          0.5630     0.0120     2.8650 c5         1 AOM      -0.038000
      6 C14         -0.7580    -0.3510     2.1190 c5         1 AOM      -0.066700
      7 C15         -1.8450     0.0820     3.1430 c5         1 AOM      -0.065400
      8 C16         -1.2090    -0.3130     4.5220 c5         1 AOM      -0.116400
      9 C17          0.2510    -0.7710     4.1850 c5         1 AOM       0.170300
     10 C18          0.8040     1.5480     3.1050 c3         1 AOM      -0.073100
     11 C19          0.5840     1.7580    -1.7390 c3         1 AOM      -0.082100
     12 C2           1.4150    -0.2240    -4.0280 c6         1 AOM      -0.112400
     13 C3           0.0300    -0.6190    -4.5940 c6         1 AOM       0.172300
     14 C4          -1.1140     0.0600    -3.8020 c6         1 AOM      -0.069400
     15 C5          -1.0000    -0.2520    -2.2820 c6         1 AOM      -0.054700
     16 C6          -2.2080     0.3130    -1.4900 c6         1 AOM      -0.068400
     17 C7          -2.1610    -0.1530    -0.0170 c6         1 AOM      -0.070400
     18 C8          -0.8190     0.2190     0.6720 c6         1 AOM      -0.043700
     19 C9           0.4160    -0.3100    -0.1610 c6         1 AOM      -0.047700
     20 O3          -0.0520    -0.2630    -5.9760 oh         1 AOM      -0.661000
     21 O17          1.1630    -0.4850     5.2460 oh         1 AOM      -0.651000
     22 HC11         1.4790    -1.5870    -2.3360 hc         1 AOM       0.040200
     23 HC12         2.5030    -0.1730    -2.1590 hc         1 AOM       0.040200
     24 H111         2.0080     1.0430     0.5780 hc         1 AOM       0.040200
     25 H112         2.6040    -0.5190     0.0570 hc         1 AOM       0.040200
     26 H121         2.7130    -0.3060     2.5450 hc         1 AOM       0.043200
     27 H122         1.7120    -1.6520     2.0320 hc         1 AOM       0.043200
     28 H14C        -0.8240    -1.4390     1.9790 hc         1 AOM       0.042700
     29 H151        -2.0520     1.1570     3.0870 hc         1 AOM       0.044200
     30 H152        -2.7970    -0.4320     2.9690 hc         1 AOM       0.044200
     31 H161        -1.2250     0.5400     5.2110 hc         1 AOM       0.046200
     32 H162        -1.7700    -1.1190     5.0100 hc         1 AOM       0.046200
     33 H17C         0.2580    -1.8520     3.9860 h1         1 AOM       0.026700
     34 H181         0.8140     2.1240     2.1740 hc         1 AOM       0.036033
     35 H182         0.0440     2.0040     3.7480 hc         1 AOM       0.036033
     36 H183         1.7700     1.7180     3.5960 hc         1 AOM       0.036033
     37 H191         0.4770     2.1500    -2.7550 hc         1 AOM       0.033367
     38 H192        -0.1300     2.3110    -1.1210 hc         1 AOM       0.033367
     39 H193         1.5870     2.0490    -1.4070 hc         1 AOM       0.033367
     40 HC21         2.2000    -0.7910    -4.5460 hc         1 AOM       0.044200
     41 HC22         1.6210     0.8340    -4.2360 hc         1 AOM       0.044200
     42 HC3         -0.0830    -1.7090    -4.4880 h1         1 AOM       0.024700
     43 HC41        -2.0760    -0.3090    -4.1810 hc         1 AOM       0.052700
     44 HC42        -1.1150     1.1430    -3.9810 hc         1 AOM       0.052700
     45 HC5         -1.0580    -1.3470    -2.1940 hc         1 AOM       0.041700
     46 HC61        -3.1460    -0.0330    -1.9440 hc         1 AOM       0.041200
     47 HC62        -2.2320     1.4100    -1.5410 hc         1 AOM       0.041200
     48 HC71        -2.3110    -1.2410     0.0220 hc         1 AOM       0.038700
     49 HC72        -3.0030     0.2940     0.5280 hc         1 AOM       0.038700
     50 HC8         -0.7740     1.3120     0.7410 hc         1 AOM       0.053700
     51 HC9          0.3180    -1.4040    -0.1970 hc         1 AOM       0.039700
     52 HO3          0.6750    -0.7430    -6.4310 ho         1 AOM       0.440000
     53 HO17         0.8460    -0.9840     6.0300 ho         1 AOM       0.441000
@<TRIPOS>BOND
     1     1     2 1   
     2     1    12 1   
     3     1    22 1   
     4     1    23 1   
     5     2    11 1   
     6     2    15 1   
     7     2    19 1   
     8     3     4 1   
     9     3    19 1   
    10     3    24 1   
    11     3    25 1   
    12     4     5 1   
    13     4    26 1   
    14     4    27 1   
    15     5     6 1   
    16     5     9 1   
    17     5    10 1   
    18     6     7 1   
    19     6    18 1   
    20     6    28 1   
    21     7     8 1   
    22     7    29 1   
    23     7    30 1   
    24     8     9 1   
    25     8    31 1   
    26     8    32 1   
    27     9    21 1   
    28     9    33 1   
    29    10    34 1   
    30    10    35 1   
    31    10    36 1   
    32    11    37 1   
    33    11    38 1   
    34    11    39 1   
    35    12    13 1   
    36    12    40 1   
    37    12    41 1   
    38    13    14 1   
    39    13    20 1   
    40    13    42 1   
    41    14    15 1   
    42    14    43 1   
    43    14    44 1   
    44    15    16 1   
    45    15    45 1   
    46    16    17 1   
    47    16    46 1   
    48    16    47 1   
    49    17    18 1   
    50    17    48 1   
    51    17    49 1   
    52    18    19 1   
    53    18    50 1   
    54    19    51 1   
    55    20    52 1   
    56    21    53 1   
@<TRIPOS>SUBSTRUCTURE
     1 AOM         1 TEMP              0 ****  ****    0 ROOT
