@<TRIPOS>MOLECULE
AON
   53    56     1     0     0
SMALL
abcg2


@<TRIPOS>ATOM
      1 C1           1.5410    -0.3610    -2.4040 c6         1 AON      -0.065400
      2 C10          0.3660     0.2620    -1.6300 c6         1 AON      -0.030000
      3 C11          1.7340     0.3820     0.5580 c6         1 AON      -0.071400
      4 C12          1.8450    -0.0550     2.0220 c6         1 AON      -0.057400
      5 C13          0.6010     0.3410     2.8100 c5         1 AON      -0.037000
      6 C14         -0.6390    -0.2170     2.0960 c5         1 AON      -0.063700
      7 C15         -1.7680    -0.0000     3.1030 c5         1 AON      -0.065400
      8 C16         -1.0780    -0.1410     4.4810 c5         1 AON      -0.114400
      9 C17          0.4400    -0.2710     4.2110 c5         1 AON       0.170300
     10 C18          0.5520     1.8640     2.9830 c3         1 AON      -0.085100
     11 C19          0.4050     1.7860    -1.8030 c3         1 AON      -0.081100
     12 C2           1.4170    -0.2060    -3.9180 c6         1 AON      -0.111400
     13 C3           0.1130    -0.7960    -4.4340 c6         1 AON       0.172300
     14 C4          -1.0730    -0.1910    -3.7050 c6         1 AON      -0.068400
     15 C5          -0.9340    -0.3590    -2.1940 c6         1 AON      -0.054700
     16 C6          -2.1710     0.1190    -1.4460 c6         1 AON      -0.068400
     17 C7          -2.0780    -0.2400     0.0290 c6         1 AON      -0.070400
     18 C8          -0.7990     0.2900     0.6710 c6         1 AON      -0.043700
     19 C9           0.4560    -0.1180    -0.1290 c6         1 AON      -0.047700
     20 O3          -0.0640    -0.5850    -5.8220 oh         1 AON      -0.661000
     21 O17          0.8640    -1.6190     4.1890 oh         1 AON      -0.659000
     22 HC11         1.6020    -1.4290    -2.1570 hc         1 AON       0.040700
     23 HC12         2.4870     0.0800    -2.0840 hc         1 AON       0.040700
     24 H111         1.7880     1.4720     0.4890 hc         1 AON       0.037200
     25 H112         2.6100     0.0080     0.0260 hc         1 AON       0.037200
     26 H121         2.7450     0.3800     2.4670 hc         1 AON       0.049200
     27 H122         1.9730    -1.1400     2.0550 hc         1 AON       0.049200
     28 H14C        -0.4860    -1.3030     2.0180 hc         1 AON       0.060700
     29 H151        -2.2110     0.9930     2.9900 hc         1 AON       0.041700
     30 H152        -2.5780    -0.7190     2.9740 hc         1 AON       0.041700
     31 H161        -1.2820     0.7240     5.1150 hc         1 AON       0.042700
     32 H162        -1.4430    -1.0100     5.0330 hc         1 AON       0.042700
     33 H17C         1.0220     0.2910     4.9560 h1         1 AON       0.036700
     34 H181         0.5480     2.4050     2.0380 hc         1 AON       0.033700
     35 H182        -0.3250     2.1970     3.5390 hc         1 AON       0.033700
     36 H183         1.4300     2.2000     3.5400 hc         1 AON       0.033700
     37 H191         0.1590     2.1020    -2.8160 hc         1 AON       0.033033
     38 H192        -0.2850     2.3000    -1.1340 hc         1 AON       0.033033
     39 H193         1.4040     2.1700    -1.5890 hc         1 AON       0.033033
     40 HC21         2.2660    -0.6980    -4.4040 hc         1 AON       0.043700
     41 HC22         1.4700     0.8510    -4.2000 hc         1 AON       0.043700
     42 HC3          0.1230    -1.8760    -4.2150 h1         1 AON       0.025700
     43 HC41        -1.9950    -0.6820    -4.0330 hc         1 AON       0.052200
     44 HC42        -1.1750     0.8670    -3.9730 hc         1 AON       0.052200
     45 HC5         -0.8550    -1.4410    -2.0050 hc         1 AON       0.042700
     46 HC61        -3.0640    -0.3370    -1.8860 hc         1 AON       0.040700
     47 HC62        -2.2910     1.2020    -1.5660 hc         1 AON       0.040700
     48 HC71        -2.1110    -1.3320     0.1370 hc         1 AON       0.038700
     49 HC72        -2.9480     0.1460     0.5670 hc         1 AON       0.038700
     50 HC8         -0.8720     1.3850     0.6870 hc         1 AON       0.048700
     51 HC9          0.4910    -1.2190    -0.0990 hc         1 AON       0.044700
     52 HO3          0.7000    -0.9500    -6.2800 ho         1 AON       0.440000
     53 HO17         0.6150    -2.0210     5.0260 ho         1 AON       0.440000
@<TRIPOS>BOND
     1     1     2 1   
     2     1    12 1   
     3     1    22 1   
     4     1    23 1   
     5     2    11 1   
     6     2    15 1   
     7     2    19 1   
     8     3     4 1   
     9     3    19 1   
    10     3    24 1   
    11     3    25 1   
    12     4     5 1   
    13     4    26 1   
    14     4    27 1   
    15     5     6 1   
    16     5     9 1   
    17     5    10 1   
    18     6     7 1   
    19     6    18 1   
    20     6    28 1   
    21     7     8 1   
    22     7    29 1   
    23     7    30 1   
    24     8     9 1   
    25     8    31 1   
    26     8    32 1   
    27     9    21 1   
    28     9    33 1   
    29    10    34 1   
    30    10    35 1   
    31    10    36 1   
    32    11    37 1   
    33    11    38 1   
    34    11    39 1   
    35    12    13 1   
    36    12    40 1   
    37    12    41 1   
    38    13    14 1   
    39    13    20 1   
    40    13    42 1   
    41    14    15 1   
    42    14    43 1   
    43    14    44 1   
    44    15    16 1   
    45    15    45 1   
    46    16    17 1   
    47    16    46 1   
    48    16    47 1   
    49    17    18 1   
    50    17    48 1   
    51    17    49 1   
    52    18    19 1   
    53    18    50 1   
    54    19    51 1   
    55    20    52 1   
    56    21    53 1   
@<TRIPOS>SUBSTRUCTURE
     1 AON         1 TEMP              0 ****  ****    0 ROOT
