@<TRIPOS>MOLECULE
AON
   53    56     1     0     0
SMALL
No Charge or Current Charge


@<TRIPOS>ATOM
      1 C1           1.5800    -0.3280    -2.4750 c6         1 AON      -0.065400
      2 C10          0.3690     0.2550    -1.6620 c6         1 AON      -0.030000
      3 C11          1.7950     0.3560     0.5720 c6         1 AON      -0.071400
      4 C12          1.8690    -0.0850     2.0650 c6         1 AON      -0.057400
      5 C13          0.6020     0.3510     2.8700 c5         1 AON      -0.037000
      6 C14         -0.6640    -0.2250     2.1640 c5         1 AON      -0.063700
      7 C15         -1.7910     0.1330     3.1710 c5         1 AON      -0.065400
      8 C16         -1.1140    -0.1060     4.5670 c5         1 AON      -0.114400
      9 C17          0.4160    -0.3210     4.2810 c5         1 AON       0.170300
     10 C18          0.6410     1.9150     3.0130 c3         1 AON      -0.085100
     11 C19          0.3550     1.8220    -1.8270 c3         1 AON      -0.081100
     12 C2           1.4360    -0.1560    -4.0130 c6         1 AON      -0.111400
     13 C3           0.1150    -0.7700    -4.5360 c6         1 AON       0.172300
     14 C4          -1.1060    -0.2090    -3.7670 c6         1 AON      -0.068400
     15 C5          -0.9410    -0.4130    -2.2340 c6         1 AON      -0.054700
     16 C6          -2.2100     0.0270    -1.4580 c6         1 AON      -0.068400
     17 C7          -2.0910    -0.3430     0.0370 c6         1 AON      -0.070400
     18 C8          -0.8080     0.2470     0.6860 c6         1 AON      -0.043700
     19 C9           0.4830    -0.1540    -0.1330 c6         1 AON      -0.047700
     20 O3          -0.0240    -0.5100    -5.9350 oh         1 AON      -0.661000
     21 O17          0.7490    -1.7130     4.3090 oh         1 AON      -0.659000
     22 HC11         1.6980    -1.3970    -2.2480 hc         1 AON       0.040700
     23 HC12         2.5180     0.1520    -2.1660 hc         1 AON       0.040700
     24 H111         1.8770     1.4470     0.5060 hc         1 AON       0.037200
     25 H112         2.6800    -0.0430     0.0630 hc         1 AON       0.037200
     26 H121         2.7780     0.3180     2.5330 hc         1 AON       0.049200
     27 H122         1.9770    -1.1780     2.0920 hc         1 AON       0.049200
     28 H14C        -0.5920    -1.3180     2.0880 hc         1 AON       0.060700
     29 H151        -2.1240     1.1710     3.0570 hc         1 AON       0.041700
     30 H152        -2.6760    -0.4970     3.0350 hc         1 AON       0.041700
     31 H161        -1.2730     0.7570     5.2230 hc         1 AON       0.042700
     32 H162        -1.5560    -0.9650     5.0850 hc         1 AON       0.042700
     33 H17C         1.0230     0.2010     5.0340 h1         1 AON       0.036700
     34 H181         0.5690     2.4320     2.0510 hc         1 AON       0.033700
     35 H182        -0.1680     2.3070     3.6400 hc         1 AON       0.033700
     36 H183         1.5770     2.2370     3.4830 hc         1 AON       0.033700
     37 H191         0.1870     2.1360    -2.8620 hc         1 AON       0.033033
     38 H192        -0.4240     2.3070    -1.2310 hc         1 AON       0.033033
     39 H193         1.3110     2.2670    -1.5290 hc         1 AON       0.033033
     40 HC21         2.2880    -0.6400    -4.5090 hc         1 AON       0.043700
     41 HC22         1.4930     0.9070    -4.2830 hc         1 AON       0.043700
     42 HC3          0.1540    -1.8570    -4.3670 h1         1 AON       0.025700
     43 HC41        -2.0110    -0.7280    -4.1110 hc         1 AON       0.052200
     44 HC42        -1.2580     0.8510    -4.0080 hc         1 AON       0.052200
     45 HC5         -0.8480    -1.4990    -2.0830 hc         1 AON       0.042700
     46 HC61        -3.0950    -0.4700    -1.8790 hc         1 AON       0.040700
     47 HC62        -2.3840     1.1050    -1.5710 hc         1 AON       0.040700
     48 HC71        -2.0900    -1.4380     0.1400 hc         1 AON       0.038700
     49 HC72        -2.9820     0.0160     0.5680 hc         1 AON       0.038700
     50 HC8         -0.9120     1.3380     0.6940 hc         1 AON       0.048700
     51 HC9          0.5380    -1.2520    -0.1050 hc         1 AON       0.044700
     52 HO3          0.7590    -0.9100    -6.3720 ho         1 AON       0.440000
     53 HO17         0.5470    -2.0310     5.2160 ho         1 AON       0.440000
@<TRIPOS>BOND
     1     1     2 1   
     2     1    12 1   
     3     1    22 1   
     4     1    23 1   
     5     2    11 1   
     6     2    15 1   
     7     2    19 1   
     8     3     4 1   
     9     3    19 1   
    10     3    24 1   
    11     3    25 1   
    12     4     5 1   
    13     4    26 1   
    14     4    27 1   
    15     5     6 1   
    16     5     9 1   
    17     5    10 1   
    18     6     7 1   
    19     6    18 1   
    20     6    28 1   
    21     7     8 1   
    22     7    29 1   
    23     7    30 1   
    24     8     9 1   
    25     8    31 1   
    26     8    32 1   
    27     9    21 1   
    28     9    33 1   
    29    10    34 1   
    30    10    35 1   
    31    10    36 1   
    32    11    37 1   
    33    11    38 1   
    34    11    39 1   
    35    12    13 1   
    36    12    40 1   
    37    12    41 1   
    38    13    14 1   
    39    13    20 1   
    40    13    42 1   
    41    14    15 1   
    42    14    43 1   
    43    14    44 1   
    44    15    16 1   
    45    15    45 1   
    46    16    17 1   
    47    16    46 1   
    48    16    47 1   
    49    17    18 1   
    50    17    48 1   
    51    17    49 1   
    52    18    19 1   
    53    18    50 1   
    54    19    51 1   
    55    20    52 1   
    56    21    53 1   
@<TRIPOS>SUBSTRUCTURE
     1 AON         1 TEMP              0 ****  ****    0 ROOT
