@<TRIPOS>MOLECULE
AOO
   32    32     1     0     0
SMALL
bcc


@<TRIPOS>ATOM
      1 N1          -1.4110     0.7040    -0.0380 nb         1 AOO      -0.919000
      2 C2          -0.2830     1.3790    -0.0860 ca         1 AOO       0.952300
      3 N3           0.9420     0.8890    -0.1050 nb         1 AOO      -0.856000
      4 C4           0.9900    -0.4470    -0.0800 ca         1 AOO       0.978900
      5 N5          -0.0720    -1.2540    -0.0260 nb         1 AOO      -0.907000
      6 C6          -1.2470    -0.6270    -0.0070 ca         1 AOO       0.983900
      7 N7           2.1940    -1.0330    -0.1270 nu         1 AOO      -0.862900
      8 C8           3.4660    -0.3340    -0.1150 c3         1 AOO       0.249500
      9 C9           3.8680     0.0890     1.2930 c3         1 AOO      -0.109600
     10 C10          4.5210    -1.2180    -0.7630 c3         1 AOO      -0.109600
     11 N11         -2.3490    -1.3790     0.0440 nu         1 AOO      -0.867900
     12 C12         -3.7010    -0.8580     0.0520 c3         1 AOO       0.244800
     13 C13         -4.7000    -1.9970     0.0720 c3         1 AOO      -0.114100
     14 O21         -0.3320     2.7020    -0.1190 os         1 AOO      -0.412100
     15 C22         -1.6070     3.3240    -0.0900 c3         1 AOO       0.141700
     16 HN7          2.1970    -2.0350    -0.0360 hn         1 AOO       0.445800
     17 H8           3.3490     0.5630    -0.7250 h1         1 AOO       0.081700
     18 H9           3.1150     0.7410     1.7340 hc         1 AOO       0.042533
     19 H9A          3.9930    -0.7790     1.9430 hc         1 AOO       0.042533
     20 H9B          4.8130     0.6320     1.2760 hc         1 AOO       0.042533
     21 H10          4.2300    -1.5080    -1.7720 hc         1 AOO       0.042533
     22 H10A         5.4700    -0.6880    -0.8260 hc         1 AOO       0.042533
     23 H10B         4.6950    -2.1280    -0.1840 hc         1 AOO       0.042533
     24 HN11        -2.2140    -2.3750     0.0590 hn         1 AOO       0.450800
     25 H12         -3.8460    -0.2130     0.9210 h1         1 AOO       0.051200
     26 H12A        -3.8640    -0.2330    -0.8280 h1         1 AOO       0.051200
     27 H13         -4.5980    -2.6320    -0.8070 hc         1 AOO       0.044033
     28 H13A        -4.5850    -2.6180     0.9610 hc         1 AOO       0.044033
     29 H13B        -5.7130    -1.5990     0.0760 hc         1 AOO       0.044033
     30 H22         -2.2150     3.0430    -0.9500 h1         1 AOO       0.046700
     31 H22A        -2.1580     3.0760     0.8180 h1         1 AOO       0.046700
     32 H22B        -1.4150     4.3930    -0.1160 h1         1 AOO       0.046700
@<TRIPOS>BOND
     1     1     2 ar  
     2     1     6 ar  
     3     2     3 ar  
     4     2    14 1   
     5     3     4 ar  
     6     4     5 ar  
     7     4     7 1   
     8     5     6 ar  
     9     6    11 1   
    10     7     8 1   
    11     7    16 1   
    12     8     9 1   
    13     8    10 1   
    14     8    17 1   
    15     9    18 1   
    16     9    19 1   
    17     9    20 1   
    18    10    21 1   
    19    10    22 1   
    20    10    23 1   
    21    11    12 1   
    22    11    24 1   
    23    12    13 1   
    24    12    25 1   
    25    12    26 1   
    26    13    27 1   
    27    13    28 1   
    28    13    29 1   
    29    14    15 1   
    30    15    30 1   
    31    15    31 1   
    32    15    32 1   
@<TRIPOS>SUBSTRUCTURE
     1 AOO         1 TEMP              0 ****  ****    0 ROOT
