@<TRIPOS>MOLECULE
AOO
   32    32     1     0     0
SMALL
No Charge or Current Charge


@<TRIPOS>ATOM
      1 N1          -1.4310     0.7820    -0.0560 nb         1 AOO      -0.393000
      2 C2          -0.2990     1.5160    -0.1130 ca         1 AOO       0.426300
      3 N3           0.9360     0.9830    -0.1570 nb         1 AOO      -0.330000
      4 C4           0.9800    -0.3570    -0.1360 ca         1 AOO       0.452900
      5 N5          -0.0730    -1.1760    -0.0840 nb         1 AOO      -0.381000
      6 C6          -1.2480    -0.5440    -0.0450 ca         1 AOO       0.457900
      7 N7           2.2100    -0.9830    -0.1830 nu         1 AOO      -0.918100
      8 C8           3.5410    -0.3630    -0.1340 c3         1 AOO       0.249500
      9 C9           3.8870     0.0290     1.3160 c3         1 AOO      -0.109600
     10 C10          4.5720    -1.3410    -0.7280 c3         1 AOO      -0.109600
     11 N11         -2.3600    -1.3540     0.0110 nu         1 AOO      -0.923100
     12 C12         -3.7680    -0.9370     0.0630 c3         1 AOO       0.244800
     13 C13         -4.6870    -2.1670     0.1170 c3         1 AOO      -0.114100
     14 O21         -0.3780     2.8910    -0.1300 os         1 AOO      -0.435300
     15 C22         -1.6500     3.5690    -0.0860 c3         1 AOO       0.164900
     16 HN7          2.1650    -2.0000    -0.1640 hn         1 AOO       0.501000
     17 H8           3.5550     0.5460    -0.7560 h1         1 AOO       0.081700
     18 H9           3.1620     0.7500     1.7100 hc         1 AOO       0.042533
     19 H9A          3.8900    -0.8510     1.9710 hc         1 AOO       0.042533
     20 H9B          4.8800     0.4930     1.3610 hc         1 AOO       0.042533
     21 H10          4.3160    -1.5920    -1.7650 hc         1 AOO       0.042533
     22 H10A         5.5720    -0.8900    -0.7280 hc         1 AOO       0.042533
     23 H10B         4.6170    -2.2700    -0.1470 hc         1 AOO       0.042533
     24 HN11        -2.1590    -2.3540     0.0170 hn         1 AOO       0.506000
     25 H12         -3.9460    -0.3140     0.9510 h1         1 AOO       0.051200
     26 H12A        -4.0180    -0.3380    -0.8250 h1         1 AOO       0.051200
     27 H13         -4.5510    -2.7950    -0.7720 hc         1 AOO       0.044033
     28 H13A        -4.4780    -2.7700     1.0090 hc         1 AOO       0.044033
     29 H13B        -5.7360    -1.8520     0.1550 hc         1 AOO       0.044033
     30 H22         -2.2710     3.2930    -0.9480 h1         1 AOO       0.046700
     31 H22A        -2.1950     3.3190     0.8330 h1         1 AOO       0.046700
     32 H22B        -1.5030     4.6570    -0.1080 h1         1 AOO       0.046700
@<TRIPOS>BOND
     1     1     2 ar  
     2     1     6 ar  
     3     2     3 ar  
     4     2    14 1   
     5     3     4 ar  
     6     4     5 ar  
     7     4     7 1   
     8     5     6 ar  
     9     6    11 1   
    10     7     8 1   
    11     7    16 1   
    12     8     9 1   
    13     8    10 1   
    14     8    17 1   
    15     9    18 1   
    16     9    19 1   
    17     9    20 1   
    18    10    21 1   
    19    10    22 1   
    20    10    23 1   
    21    11    12 1   
    22    11    24 1   
    23    12    13 1   
    24    12    25 1   
    25    12    26 1   
    26    13    27 1   
    27    13    28 1   
    28    13    29 1   
    29    14    15 1   
    30    15    30 1   
    31    15    31 1   
    32    15    32 1   
@<TRIPOS>SUBSTRUCTURE
     1 AOO         1 TEMP              0 ****  ****    0 ROOT
