@<TRIPOS>MOLECULE
AOP
   25    24     1     0     0
SMALL
No Charge or Current Charge


@<TRIPOS>ATOM
      1 O1          -0.7910    -1.1740    -4.7060 o          1 AOP      -0.508100
      2 C1          -0.1790    -0.1330    -4.4720 c          1 AOP       0.574900
      3 C2           0.4140     0.2280    -3.0860 c3         1 AOP      -0.003200
      4 N3          -0.3110    -0.3750    -1.9280 n7         1 AOP      -0.611900
      5 O4           0.3610    -0.1040    -0.6740 os         1 AOP      -0.277300
      6 C5          -0.4620    -0.2960     0.4930 c3         1 AOP       0.164600
      7 C6           0.3930     0.0350     1.7330 c3         1 AOP      -0.085400
      8 C7          -0.3810    -0.1310     3.0600 c3         1 AOP      -0.074400
      9 C8           0.4720     0.2000     4.3040 c3         1 AOP      -0.074400
     10 C9          -0.3000     0.0340     5.6270 c3         1 AOP      -0.089100
     11 H1          -0.0040     0.6190    -5.2720 h4         1 AOP       0.001200
     12 H21          0.4060     1.3230    -3.0130 h1         1 AOP       0.073700
     13 H22          1.4660    -0.0870    -3.1000 h1         1 AOP       0.073700
     14 HN3         -0.2840    -1.4040    -2.0290 hn         1 AOP       0.417000
     15 H51         -0.8120    -1.3350     0.5540 h1         1 AOP       0.032700
     16 H52         -1.3370     0.3660     0.4620 h1         1 AOP       0.032700
     17 H61          0.7540     1.0680     1.6530 hc         1 AOP       0.050200
     18 H62          1.2740    -0.6170     1.7440 hc         1 AOP       0.050200
     19 H71         -0.7450    -1.1640     3.1370 hc         1 AOP       0.039200
     20 H72         -1.2650     0.5190     3.0450 hc         1 AOP       0.039200
     21 H81          0.8360     1.2330     4.2310 hc         1 AOP       0.038700
     22 H82          1.3560    -0.4500     4.3230 hc         1 AOP       0.038700
     23 H91          0.3450     0.2800     6.4790 hc         1 AOP       0.032367
     24 H92         -1.1720     0.6990     5.6540 hc         1 AOP       0.032367
     25 H93         -0.6470    -0.9990     5.7470 hc         1 AOP       0.032367
@<TRIPOS>BOND
     1     1     2 2   
     2     2     3 1   
     3     2    11 1   
     4     3     4 1   
     5     3    12 1   
     6     3    13 1   
     7     4     5 1   
     8     4    14 1   
     9     5     6 1   
    10     6     7 1   
    11     6    15 1   
    12     6    16 1   
    13     7     8 1   
    14     7    17 1   
    15     7    18 1   
    16     8     9 1   
    17     8    19 1   
    18     8    20 1   
    19     9    10 1   
    20     9    21 1   
    21     9    22 1   
    22    10    23 1   
    23    10    24 1   
    24    10    25 1   
@<TRIPOS>SUBSTRUCTURE
     1 AOP         1 TEMP              0 ****  ****    0 ROOT
