@<TRIPOS>MOLECULE
AOP
   25    24     1     0     0
SMALL
bcc


@<TRIPOS>ATOM
      1 O1          -0.1490     0.4630    -5.0910 o          1 AOP      -0.508100
      2 C1          -0.4960     0.1750    -3.9740 c          1 AOP       0.574900
      3 C2           0.4320     0.1050    -2.7920 c3         1 AOP      -0.003200
      4 N3          -0.0510    -0.8940    -1.8600 n7         1 AOP      -0.556700
      5 O4           0.6520    -0.7730    -0.6510 os         1 AOP      -0.254100
      6 C5          -0.2440    -0.4490     0.3960 c3         1 AOP       0.141400
      7 C6           0.5530    -0.3010     1.6760 c3         1 AOP      -0.085400
      8 C7          -0.3480    -0.0050     2.8690 c3         1 AOP      -0.074400
      9 C8           0.4240     0.1340     4.1750 c3         1 AOP      -0.074400
     10 C9          -0.4800     0.4150     5.3660 c3         1 AOP      -0.089100
     11 H1          -1.5530    -0.0310    -3.7310 h4         1 AOP       0.001200
     12 H21          0.3630     1.0860    -2.3070 h1         1 AOP       0.073700
     13 H22          1.4680    -0.0260    -3.1240 h1         1 AOP       0.073700
     14 HN3          0.1900    -1.8170    -2.2050 hn         1 AOP       0.361800
     15 H51         -0.9990    -1.2360     0.5100 h1         1 AOP       0.032700
     16 H52         -0.7770     0.4840     0.1720 h1         1 AOP       0.032700
     17 H61          1.2890     0.5020     1.5620 hc         1 AOP       0.050200
     18 H62          1.1150    -1.2210     1.8640 hc         1 AOP       0.050200
     19 H71         -1.0910    -0.8030     2.9730 hc         1 AOP       0.039200
     20 H72         -0.9130     0.9150     2.6830 hc         1 AOP       0.039200
     21 H81          1.1630     0.9340     4.0760 hc         1 AOP       0.038700
     22 H82          0.9930    -0.7840     4.3550 hc         1 AOP       0.038700
     23 H91          0.0900     0.5000     6.2920 hc         1 AOP       0.032367
     24 H92         -1.0320     1.3470     5.2320 hc         1 AOP       0.032367
     25 H93         -1.2130    -0.3830     5.5020 hc         1 AOP       0.032367
@<TRIPOS>BOND
     1     1     2 2   
     2     2     3 1   
     3     2    11 1   
     4     3     4 1   
     5     3    12 1   
     6     3    13 1   
     7     4     5 1   
     8     4    14 1   
     9     5     6 1   
    10     6     7 1   
    11     6    15 1   
    12     6    16 1   
    13     7     8 1   
    14     7    17 1   
    15     7    18 1   
    16     8     9 1   
    17     8    19 1   
    18     8    20 1   
    19     9    10 1   
    20     9    21 1   
    21     9    22 1   
    22    10    23 1   
    23    10    24 1   
    24    10    25 1   
@<TRIPOS>SUBSTRUCTURE
     1 AOP         1 TEMP              0 ****  ****    0 ROOT
