@<TRIPOS>MOLECULE
AOQ
   45    48     1     0     0
SMALL
abcg2


@<TRIPOS>ATOM
      1 O1          -2.2250    -1.9880    -0.0820 o          1 AOQ      -0.512100
      2 O2          -4.9210     2.5770     0.1420 o          1 AOQ      -0.519100
      3 C1          -2.8330    -0.9340    -0.0380 c          1 AOQ       0.587900
      4 C2          -2.1330     0.3560     0.0150 cc         1 AOQ      -0.201400
      5 C3          -2.8690     1.4880     0.0690 cd         1 AOQ       0.058900
      6 C4          -4.3600     1.5010     0.0810 c          1 AOQ       0.551900
      7 C5          -6.4570     0.1850     0.0240 ca         1 AOQ      -0.055000
      8 C6          -7.1130    -1.0350    -0.0320 ca         1 AOQ      -0.104000
      9 C7          -6.3800    -2.2130    -0.0890 ca         1 AOQ      -0.087000
     10 C8          -4.9920    -2.1790    -0.0900 ca         1 AOQ      -0.069000
     11 C9          -4.3270    -0.9610    -0.0350 ca         1 AOQ      -0.122600
     12 C10         -5.0680     0.2200     0.0220 ca         1 AOQ      -0.144600
     13 O6          -2.3160     2.6920     0.1200 oh         1 AOQ      -0.512100
     14 C11          0.0100    -0.2400     1.2480 c6         1 AOQ      -0.068900
     15 C12          1.5160    -0.0020     1.2520 c6         1 AOQ      -0.067900
     16 C13          2.1730    -0.5250    -0.0280 c6         1 AOQ      -0.018400
     17 C14          1.5110     0.0910    -1.2650 c6         1 AOQ      -0.067900
     18 C15          0.0040    -0.1400    -1.2720 c6         1 AOQ      -0.068900
     19 C16         -0.6270     0.4090     0.0130 c6         1 AOQ      -0.003500
     20 CL           8.1430     0.3430    -0.0660 cl         1 AOQ      -0.210000
     21 C17          3.6640    -0.3040    -0.0310 ca         1 AOQ      -0.069300
     22 C18          4.2070     0.9740     0.0950 ca         1 AOQ      -0.100000
     23 C19          5.5780     1.1830     0.0850 ca         1 AOQ      -0.103500
     24 C20          6.4250     0.0950    -0.0540 ca         1 AOQ       0.118000
     25 C21          5.9200    -1.1870    -0.1840 ca         1 AOQ      -0.103500
     26 C22          4.5440    -1.3740    -0.1710 ca         1 AOQ      -0.100000
     27 H1          -7.0250     1.1050     0.0700 ha         1 AOQ       0.137000
     28 H2          -8.1940    -1.0670    -0.0310 ha         1 AOQ       0.124000
     29 H3          -6.8920    -3.1650    -0.1330 ha         1 AOQ       0.123000
     30 H4          -4.4290    -3.1000    -0.1350 ha         1 AOQ       0.142000
     31 H5          -3.0190     3.3610     0.1580 ho         1 AOQ       0.492000
     32 H6          -0.1890    -1.3130     1.2630 hc         1 AOQ       0.049200
     33 H7          -0.4320     0.1780     2.1560 hc         1 AOQ       0.049200
     34 H8           1.7110     1.0710     1.3570 hc         1 AOQ       0.042450
     35 H9           1.9680    -0.4850     2.1220 hc         1 AOQ       0.042450
     36 H10          2.0000    -1.6070    -0.0690 hc         1 AOQ       0.055700
     37 H11          1.7160     1.1670    -1.2950 hc         1 AOQ       0.042450
     38 H12          1.9570    -0.3330    -2.1690 hc         1 AOQ       0.042450
     39 H13         -0.4410     0.3500    -2.1420 hc         1 AOQ       0.049200
     40 H14         -0.1990    -1.2080    -1.3710 hc         1 AOQ       0.049200
     41 H15         -0.3480     1.4660     0.0560 hc         1 AOQ       0.061700
     42 H16          3.5570     1.8340     0.2020 ha         1 AOQ       0.116500
     43 H17          5.9780     2.1840     0.1860 ha         1 AOQ       0.128000
     44 H18          6.5850    -2.0340    -0.2930 ha         1 AOQ       0.128000
     45 H19          4.1520    -2.3790    -0.2740 ha         1 AOQ       0.116500
@<TRIPOS>BOND
     1     1     3 2   
     2     2     6 2   
     3     3     4 1   
     4     3    11 1   
     5     4     5 2   
     6     4    19 1   
     7     5     6 1   
     8     5    13 1   
     9     6    12 1   
    10     7     8 ar  
    11     7    12 ar  
    12     7    27 1   
    13     8     9 ar  
    14     8    28 1   
    15     9    10 ar  
    16     9    29 1   
    17    10    11 ar  
    18    10    30 1   
    19    11    12 ar  
    20    13    31 1   
    21    14    15 1   
    22    14    19 1   
    23    14    32 1   
    24    14    33 1   
    25    15    16 1   
    26    15    34 1   
    27    15    35 1   
    28    16    17 1   
    29    16    21 1   
    30    16    36 1   
    31    17    18 1   
    32    17    37 1   
    33    17    38 1   
    34    18    19 1   
    35    18    39 1   
    36    18    40 1   
    37    19    41 1   
    38    20    24 1   
    39    21    22 ar  
    40    21    26 ar  
    41    22    23 ar  
    42    22    42 1   
    43    23    24 ar  
    44    23    43 1   
    45    24    25 ar  
    46    25    26 ar  
    47    25    44 1   
    48    26    45 1   
@<TRIPOS>SUBSTRUCTURE
     1 AOQ         1 TEMP              0 ****  ****    0 ROOT
