@<TRIPOS>MOLECULE
AOQ
   45    48     1     0     0
SMALL
No Charge or Current Charge


@<TRIPOS>ATOM
      1 O1          -2.1520    -1.9540    -0.1060 o          1 AOQ      -0.512100
      2 O2          -5.1370     2.5650     0.1610 o          1 AOQ      -0.519100
      3 C1          -2.8030    -0.9170    -0.0450 c          1 AOQ       0.587900
      4 C2          -2.1730     0.4430     0.0270 cc         1 AOQ      -0.201400
      5 C3          -2.9710     1.5800     0.0950 cd         1 AOQ       0.058900
      6 C4          -4.4690     1.5360     0.1000 c          1 AOQ       0.551900
      7 C5          -6.5250     0.0730     0.0300 ca         1 AOQ      -0.055000
      8 C6          -7.1430    -1.1850    -0.0370 ca         1 AOQ      -0.104000
      9 C7          -6.3590    -2.3450    -0.1060 ca         1 AOQ      -0.087000
     10 C8          -4.9590    -2.2470    -0.1080 ca         1 AOQ      -0.069000
     11 C9          -4.3190    -0.9860    -0.0410 ca         1 AOQ      -0.122600
     12 C10         -5.1160     0.1830     0.0280 ca         1 AOQ      -0.144600
     13 O6          -2.4640     2.8460     0.1620 oh         1 AOQ      -0.512100
     14 C11          0.0090    -0.1200     1.2710 c6         1 AOQ      -0.068900
     15 C12          1.5480     0.0660     1.2650 c6         1 AOQ      -0.067900
     16 C13          2.1810    -0.4750    -0.0470 c6         1 AOQ      -0.018400
     17 C14          1.5340     0.2080    -1.2850 c6         1 AOQ      -0.067900
     18 C15         -0.0050     0.0230    -1.2950 c6         1 AOQ      -0.068900
     19 C16         -0.6390     0.5490     0.0250 c6         1 AOQ      -0.003500
     20 Cl           8.2730     0.0820    -0.0490 cl         1 AOQ      -0.210000
     21 C17          3.7100    -0.3270    -0.0470 ca         1 AOQ      -0.069300
     22 C18          4.3130     0.9470     0.0200 ca         1 AOQ      -0.100000
     23 C19          5.7140     1.0720     0.0200 ca         1 AOQ      -0.103500
     24 C20          6.5210    -0.0750    -0.0480 ca         1 AOQ       0.118000
     25 C21          5.9300    -1.3470    -0.1160 ca         1 AOQ      -0.103500
     26 C22          4.5300    -1.4730    -0.1150 ca         1 AOQ      -0.100000
     27 H1          -7.1480     0.9640     0.0820 ha         1 AOQ       0.137000
     28 H2          -8.2280    -1.2590    -0.0360 ha         1 AOQ       0.124000
     29 H3          -6.8360    -3.3210    -0.1580 ha         1 AOQ       0.123000
     30 H4          -4.3720    -3.1620    -0.1620 ha         1 AOQ       0.142000
     31 H5          -3.2350     3.4590     0.2010 ho         1 AOQ       0.492000
     32 H6          -0.2160    -1.1930     1.3090 hc         1 AOQ       0.049200
     33 H7          -0.4100     0.3180     2.1880 hc         1 AOQ       0.049200
     34 H8           1.7860     1.1310     1.3920 hc         1 AOQ       0.042450
     35 H9           1.9840    -0.4540     2.1290 hc         1 AOQ       0.042450
     36 H10          1.9420    -1.5470    -0.1060 hc         1 AOQ       0.055700
     37 H11          1.7720     1.2800    -1.2950 hc         1 AOQ       0.042450
     38 H12          1.9610    -0.2120    -2.2060 hc         1 AOQ       0.042450
     39 H13         -0.4340     0.5590    -2.1530 hc         1 AOQ       0.049200
     40 H14         -0.2310    -1.0390    -1.4500 hc         1 AOQ       0.049200
     41 H15         -0.3480     1.6070     0.0820 hc         1 AOQ       0.061700
     42 H16          3.7000     1.8440     0.0730 ha         1 AOQ       0.116500
     43 H17          6.1740     2.0560     0.0720 ha         1 AOQ       0.128000
     44 H18          6.5570    -2.2330    -0.1680 ha         1 AOQ       0.128000
     45 H19          4.0840    -2.4640    -0.1680 ha         1 AOQ       0.116500
@<TRIPOS>BOND
     1     1     3 2   
     2     2     6 2   
     3     3     4 1   
     4     3    11 1   
     5     4     5 2   
     6     4    19 1   
     7     5     6 1   
     8     5    13 1   
     9     6    12 1   
    10     7     8 ar  
    11     7    12 ar  
    12     7    27 1   
    13     8     9 ar  
    14     8    28 1   
    15     9    10 ar  
    16     9    29 1   
    17    10    11 ar  
    18    10    30 1   
    19    11    12 ar  
    20    13    31 1   
    21    14    15 1   
    22    14    19 1   
    23    14    32 1   
    24    14    33 1   
    25    15    16 1   
    26    15    34 1   
    27    15    35 1   
    28    16    17 1   
    29    16    21 1   
    30    16    36 1   
    31    17    18 1   
    32    17    37 1   
    33    17    38 1   
    34    18    19 1   
    35    18    39 1   
    36    18    40 1   
    37    19    41 1   
    38    20    24 1   
    39    21    22 ar  
    40    21    26 ar  
    41    22    23 ar  
    42    22    42 1   
    43    23    24 ar  
    44    23    43 1   
    45    24    25 ar  
    46    25    26 ar  
    47    25    44 1   
    48    26    45 1   
@<TRIPOS>SUBSTRUCTURE
     1 AOQ         1 TEMP              0 ****  ****    0 ROOT
