@<TRIPOS>MOLECULE
AOR
   25    24     1     0     0
SMALL
No Charge or Current Charge


@<TRIPOS>ATOM
      1 CA           0.4390    -0.6990     0.1370 c3         1 AOR      -0.042300
      2 C            1.3110    -1.9250    -0.2790 c          1 AOR       0.716000
      3 O            1.5980    -2.0640    -1.4610 o          1 AOR      -0.724500
      4 OXT          1.7400    -2.6540     0.6040 o          1 AOR      -0.724500
      5 CB          -1.0340    -0.8710    -0.3220 c3         1 AOR      -0.072400
      6 CG          -2.0030     0.2150     0.2040 c3         1 AOR      -0.079400
      7 CD          -3.4660    -0.0390    -0.2170 c3         1 AOR       0.142800
      8 NE          -4.3700     1.0050     0.2970 n8         1 AOR      -0.997200
      9 N1           1.0410     0.5580    -0.3740 ns         1 AOR      -0.457900
     10 C1           1.1450     1.7410     0.3250 c          1 AOR       0.603100
     11 O1           0.7580     1.8710     1.4780 o          1 AOR      -0.631100
     12 C2           1.7890     2.8840    -0.4550 c3         1 AOR      -0.178100
     13 HA           0.4520    -0.6680     1.2340 h1         1 AOR       0.065700
     14 HB1         -1.0710    -0.8880    -1.4180 hc         1 AOR       0.044700
     15 HB2         -1.3890    -1.8510     0.0190 hc         1 AOR       0.044700
     16 HG1         -1.9420     0.2500     1.2990 hc         1 AOR       0.039700
     17 HG2         -1.6890     1.1960    -0.1710 hc         1 AOR       0.039700
     18 HD1         -3.5370    -0.0550    -1.3140 h1         1 AOR       0.022700
     19 HD2         -3.7990    -1.0120     0.1680 h1         1 AOR       0.022700
     20 HNE1        -4.1080     1.9060    -0.1190 hn         1 AOR       0.378500
     21 HNE2        -5.3160     0.8360    -0.0660 hn         1 AOR       0.378500
     22 HN1          1.4140     0.5550    -1.3170 hn         1 AOR       0.286500
     23 H21          2.7700     2.5590    -0.8210 hc         1 AOR       0.041033
     24 H22          1.2340     3.0370    -1.3880 hc         1 AOR       0.041033
     25 H23          1.8610     3.8090     0.1280 hc         1 AOR       0.041033
@<TRIPOS>BOND
     1     1     2 1   
     2     1     5 1   
     3     1     9 1   
     4     1    13 1   
     5     2     3 1   
     6     2     4 1   
     7     5     6 1   
     8     5    14 1   
     9     5    15 1   
    10     6     7 1   
    11     6    16 1   
    12     6    17 1   
    13     7     8 1   
    14     7    18 1   
    15     7    19 1   
    16     8    20 1   
    17     8    21 1   
    18     9    10 1   
    19     9    22 1   
    20    10    11 2   
    21    10    12 1   
    22    12    23 1   
    23    12    24 1   
    24    12    25 1   
@<TRIPOS>SUBSTRUCTURE
     1 AOR         1 TEMP              0 ****  ****    0 ROOT
