@<TRIPOS>MOLECULE
AOR
   25    24     1     0     0
SMALL
bcc


@<TRIPOS>ATOM
      1 CA           0.2960    -0.4610     0.2150 c3         1 AOR      -0.042300
      2 C            1.2890    -1.6020    -0.1370 c          1 AOR       0.926600
      3 O            2.2250    -1.3400    -0.9100 o          1 AOR      -0.829800
      4 OXT          1.0390    -2.6990     0.4020 o          1 AOR      -0.829800
      5 CB          -1.1170    -0.7950    -0.2590 c3         1 AOR      -0.072400
      6 CG          -2.1690     0.2100     0.1920 c3         1 AOR      -0.079400
      7 CD          -3.5720    -0.1800    -0.2470 c3         1 AOR       0.142800
      8 NE          -4.5510     0.7970     0.2080 n8         1 AOR      -0.886800
      9 N1           0.7060     0.8180    -0.3150 ns         1 AOR      -0.524900
     10 C1           1.6890     1.5500     0.2270 c          1 AOR       0.670100
     11 O1           2.1960     1.2940     1.3140 o          1 AOR      -0.631100
     12 C2           2.1310     2.7450    -0.5830 c3         1 AOR      -0.178100
     13 HA           0.2730    -0.3730     1.3050 h1         1 AOR       0.065700
     14 HB1         -1.1280    -0.8790    -1.3530 hc         1 AOR       0.044700
     15 HB2         -1.3710    -1.7850     0.1250 hc         1 AOR       0.044700
     16 HG1         -2.1470     0.2990     1.2830 hc         1 AOR       0.039700
     17 HG2         -1.9330     1.2030    -0.2030 hc         1 AOR       0.039700
     18 HD1         -3.5760    -0.3270    -1.3380 h1         1 AOR       0.022700
     19 HD2         -3.8280    -1.1490     0.1910 h1         1 AOR       0.022700
     20 HNE1        -4.3830     1.6780    -0.2630 hn         1 AOR       0.323300
     21 HNE2        -5.4770     0.5090    -0.0820 hn         1 AOR       0.323300
     22 HN1          0.4370     1.0290    -1.2620 hn         1 AOR       0.286500
     23 H21          3.1460     2.5740    -0.9480 hc         1 AOR       0.041033
     24 H22          1.4950     2.9520    -1.4420 hc         1 AOR       0.041033
     25 H23          2.1600     3.6300     0.0510 hc         1 AOR       0.041033
@<TRIPOS>BOND
     1     1     2 1   
     2     1     5 1   
     3     1     9 1   
     4     1    13 1   
     5     2     3 1   
     6     2     4 1   
     7     5     6 1   
     8     5    14 1   
     9     5    15 1   
    10     6     7 1   
    11     6    16 1   
    12     6    17 1   
    13     7     8 1   
    14     7    18 1   
    15     7    19 1   
    16     8    20 1   
    17     8    21 1   
    18     9    10 1   
    19     9    22 1   
    20    10    11 2   
    21    10    12 1   
    22    12    23 1   
    23    12    24 1   
    24    12    25 1   
@<TRIPOS>SUBSTRUCTURE
     1 AOR         1 TEMP              0 ****  ****    0 ROOT
