@<TRIPOS>MOLECULE
AOS
   24    23     1     0     0
SMALL
bcc


@<TRIPOS>ATOM
      1 C1           0.3700    -4.9850     3.7790 c          1 AOS       0.552900
      2 O1          -0.4430    -5.6170     4.4080 o          1 AOS      -0.516100
      3 C2           1.0440    -3.7620     4.3400 c3         1 AOS      -0.003900
      4 O2           0.6350    -3.5200     5.6580 oh         1 AOS      -0.598800
      5 C3           0.7200    -2.5220     3.4850 c3         1 AOS       0.113100
      6 O3          -0.6750    -2.3290     3.4450 oh         1 AOS      -0.607800
      7 C4           1.1910    -2.6280     2.0250 c3         1 AOS       0.110100
      8 O4           2.3560    -3.4060     1.8760 oh         1 AOS      -0.589800
      9 C5           1.3990    -1.2500     1.3750 c3         1 AOS       0.077100
     10 O5           0.3960    -0.3130     1.7040 oh         1 AOS      -0.594800
     11 C6           1.5300    -1.3760    -0.1400 c3         1 AOS       0.111400
     12 O6           1.7850    -0.1380    -0.7560 oh         1 AOS      -0.585800
     13 H1           0.6720    -5.2870     2.7650 h4         1 AOS       0.021200
     14 H2           2.1250    -3.9530     4.3070 h1         1 AOS       0.081700
     15 HO2         -0.0250    -4.1860     5.8930 ho         1 AOS       0.432000
     16 H3           1.2260    -1.6740     3.9700 h1         1 AOS       0.061700
     17 HO3         -0.9750    -2.0840     4.3270 ho         1 AOS       0.430000
     18 H4           0.4110    -3.1670     1.4730 h1         1 AOS       0.088700
     19 HO4          3.0980    -2.9470     2.2850 ho         1 AOS       0.410000
     20 H5           2.3300    -0.8260     1.7750 h1         1 AOS       0.076700
     21 HO5         -0.4690    -0.7280     1.6170 ho         1 AOS       0.419000
     22 H61          0.6160    -1.8440    -0.5370 h1         1 AOS       0.049700
     23 H62          2.3610    -2.0380    -0.3890 h1         1 AOS       0.049700
     24 HO6          1.0920     0.4700    -0.4770 ho         1 AOS       0.413000
@<TRIPOS>BOND
     1     1     2 2   
     2     1     3 1   
     3     1    13 1   
     4     3     4 1   
     5     3     5 1   
     6     3    14 1   
     7     4    15 1   
     8     5     6 1   
     9     5     7 1   
    10     5    16 1   
    11     6    17 1   
    12     7     8 1   
    13     7     9 1   
    14     7    18 1   
    15     8    19 1   
    16     9    10 1   
    17     9    11 1   
    18     9    20 1   
    19    10    21 1   
    20    11    12 1   
    21    11    22 1   
    22    11    23 1   
    23    12    24 1   
@<TRIPOS>SUBSTRUCTURE
     1 AOS         1 TEMP              0 ****  ****    0 ROOT
