@<TRIPOS>MOLECULE
AOS
   24    23     1     0     0
SMALL
No Charge or Current Charge


@<TRIPOS>ATOM
      1 C1           0.0960    -4.9310     3.5680 c          1 AOS       0.552900
      2 O1          -0.8740    -5.5450     4.0080 o          1 AOS      -0.516100
      3 C2           0.8010    -3.7710     4.3390 c3         1 AOS       0.019300
      4 O2           0.1690    -3.4620     5.6240 oh         1 AOS      -0.721000
      5 C3           0.8840    -2.4540     3.5150 c3         1 AOS       0.136300
      6 O3          -0.3930    -1.8150     3.6510 oh         1 AOS      -0.730000
      7 C4           1.2720    -2.6170     2.0030 c3         1 AOS       0.133300
      8 O4           2.5150    -3.3430     1.8910 oh         1 AOS      -0.712000
      9 C5           1.3750    -1.2510     1.2470 c3         1 AOS       0.100300
     10 O5           0.1350    -0.5260     1.3860 oh         1 AOS      -0.717000
     11 C6           1.6820    -1.4130    -0.2650 c3         1 AOS       0.134600
     12 O6           1.4930    -0.1370    -0.8870 oh         1 AOS      -0.708000
     13 H1           0.6430    -5.3080     2.6760 h4         1 AOS       0.021200
     14 H2           1.8310    -4.1200     4.5000 h1         1 AOS       0.081700
     15 HO2          0.0120    -4.3170     6.0990 ho         1 AOS       0.531000
     16 H3           1.6510    -1.8240     3.9880 h1         1 AOS       0.061700
     17 HO3         -0.6750    -2.1160     4.5570 ho         1 AOS       0.529000
     18 H4           0.4730    -3.1910     1.5110 h1         1 AOS       0.088700
     19 HO4          3.2350    -2.7810     2.2630 ho         1 AOS       0.509000
     20 H5           2.1920    -0.6720     1.7010 h1         1 AOS       0.076700
     21 HO5         -0.2490    -0.8540     2.2520 ho         1 AOS       0.518000
     22 H61          1.0000    -2.1580    -0.6980 h1         1 AOS       0.049700
     23 H62          2.7110    -1.7720    -0.4050 h1         1 AOS       0.049700
     24 HO6          0.7910     0.2710    -0.3180 ho         1 AOS       0.512000
@<TRIPOS>BOND
     1     1     2 2   
     2     1     3 1   
     3     1    13 1   
     4     3     4 1   
     5     3     5 1   
     6     3    14 1   
     7     4    15 1   
     8     5     6 1   
     9     5     7 1   
    10     5    16 1   
    11     6    17 1   
    12     7     8 1   
    13     7     9 1   
    14     7    18 1   
    15     8    19 1   
    16     9    10 1   
    17     9    11 1   
    18     9    20 1   
    19    10    21 1   
    20    11    12 1   
    21    11    22 1   
    22    11    23 1   
    23    12    24 1   
@<TRIPOS>SUBSTRUCTURE
     1 AOS         1 TEMP              0 ****  ****    0 ROOT
