@<TRIPOS>MOLECULE
AOT
   18    18     1     0     0
SMALL
bcc


@<TRIPOS>ATOM
      1 C1          -0.9870     0.1500     0.0090 ca         1 AOT       0.110600
      2 N1           0.3740     0.4360    -0.0370 ns         1 AOT      -0.473100
      3 O1           1.3940    -1.5750     0.3270 o          1 AOT      -0.611100
      4 C2          -1.5150    -1.1200     0.2540 ca         1 AOT      -0.193500
      5 O2           2.6980     1.6160    -0.2400 o          1 AOT      -0.792800
      6 O3           3.8090    -0.2940     0.1260 o          1 AOT      -0.792800
      7 C8           2.7950     0.3950    -0.0140 c          1 AOT       0.878600
      8 C7           1.4440    -0.3780     0.1130 c          1 AOT       0.509100
      9 C4          -2.8930    -1.2980     0.2820 ca         1 AOT      -0.106500
     10 C6          -3.7620    -0.2380     0.0720 ca         1 AOT      -0.200000
     11 C5          -3.2360     1.0240    -0.1730 ca         1 AOT      -0.106500
     12 C3          -1.8660     1.2170    -0.2040 ca         1 AOT      -0.193500
     13 H1           0.6360     1.3980    -0.2130 hn         1 AOT       0.348500
     14 H2          -0.8670    -1.9640     0.4210 ha         1 AOT       0.145500
     15 H4          -3.2850    -2.2890     0.4750 ha         1 AOT       0.110500
     16 H5          -4.8330    -0.3910     0.0960 ha         1 AOT       0.110000
     17 H6          -3.8940     1.8660    -0.3430 ha         1 AOT       0.110500
     18 H7          -1.4680     2.2070    -0.3980 ha         1 AOT       0.145500
@<TRIPOS>BOND
     1     1     2 1   
     2     1     4 ar  
     3     1    12 ar  
     4     2     8 1   
     5     2    13 1   
     6     3     8 2   
     7     4     9 ar  
     8     4    14 1   
     9     5     7 1   
    10     6     7 1   
    11     7     8 1   
    12     9    10 ar  
    13     9    15 1   
    14    10    11 ar  
    15    10    16 1   
    16    11    12 ar  
    17    11    17 1   
    18    12    18 1   
@<TRIPOS>SUBSTRUCTURE
     1 AOT         1 TEMP              0 ****  ****    0 ROOT
