@<TRIPOS>MOLECULE
AOT
   18    18     1     0     0
SMALL
No Charge or Current Charge


@<TRIPOS>ATOM
      1 C1          -1.0120     0.1400     0.0110 ca         1 AOT       0.018000
      2 N1           0.3850     0.4050    -0.0320 ns         1 AOT      -0.147000
      3 O1           1.4600    -1.6190     0.3620 o          1 AOT      -0.611100
      4 C2          -1.5610    -1.1390     0.2540 ca         1 AOT      -0.175500
      5 O2           2.8370     1.6290    -0.2550 o          1 AOT      -0.687500
      6 O3           3.9620    -0.1810     0.0990 o          1 AOT      -0.687500
      7 C8           2.8970     0.4230    -0.0230 c          1 AOT       0.668000
      8 C7           1.5080    -0.4050     0.1290 c          1 AOT       0.442100
      9 C4          -2.9550    -1.3210     0.2820 ca         1 AOT      -0.088500
     10 C6          -3.8130    -0.2320     0.0680 ca         1 AOT      -0.182000
     11 C5          -3.2780     1.0430    -0.1740 ca         1 AOT      -0.088500
     12 C3          -1.8850     1.2250    -0.2020 ca         1 AOT      -0.175500
     13 H1           0.6110     1.3750    -0.2180 hn         1 AOT       0.182000
     14 H2          -0.9280    -2.0030     0.4230 ha         1 AOT       0.127500
     15 H4          -3.3690    -2.3100     0.4690 ha         1 AOT       0.092500
     16 H5          -4.8910    -0.3750     0.0900 ha         1 AOT       0.092000
     17 H6          -3.9410     1.8890    -0.3400 ha         1 AOT       0.092500
     18 H7          -1.4830     2.2180    -0.3910 ha         1 AOT       0.127500
@<TRIPOS>BOND
     1     1     2 1   
     2     1     4 ar  
     3     1    12 ar  
     4     2     8 1   
     5     2    13 1   
     6     3     8 2   
     7     4     9 ar  
     8     4    14 1   
     9     5     7 1   
    10     6     7 1   
    11     7     8 1   
    12     9    10 ar  
    13     9    15 1   
    14    10    11 ar  
    15    10    16 1   
    16    11    12 ar  
    17    11    17 1   
    18    12    18 1   
@<TRIPOS>SUBSTRUCTURE
     1 AOT         1 TEMP              0 ****  ****    0 ROOT
