@<TRIPOS>MOLECULE
AOU
   52    55     1     0     0
SMALL
bcc


@<TRIPOS>ATOM
      1 C2           0.8190    -3.4570     0.1850 ca         1 AOU      -0.095000
      2 C8          -0.6530     0.5480     0.9080 cc         1 AOU      -0.058100
      3 C13         -1.4730     0.8650    -1.1570 ca         1 AOU      -0.046800
      4 N2           3.7050     0.5730     1.2040 nc         1 AOU      -0.351300
      5 C4          -1.7710     1.2150    -2.4750 ca         1 AOU      -0.115000
      6 C11         -3.5300    -0.4850    -0.9930 ca         1 AOU      -0.002800
      7 C1          -0.3750     1.1700    -0.2860 cd         1 AOU      -0.268400
      8 C3          -3.7910    -0.1050    -2.3060 ca         1 AOU      -0.140000
      9 C6           1.0310    -2.9490     1.4560 ca         1 AOU      -0.122000
     10 C21         -6.6870    -2.3300     0.3150 c          1 AOU       0.906800
     11 C9          -2.3480     0.0270    -0.4330 ca         1 AOU      -0.064200
     12 C19         -5.7760    -1.3510    -0.3920 ce         1 AOU      -0.168200
     13 O30         -6.1550    -3.2380     0.9830 o          1 AOU      -0.828800
     14 O28         -7.9100    -2.1300     0.1610 o          1 AOU      -0.828800
     15 C40         -2.9360     0.7270    -3.0330 ca         1 AOU      -0.141000
     16 N1          -1.8170    -0.1230     0.8370 na         1 AOU      -0.026400
     17 C33         -2.3750    -0.8620     1.9500 c3         1 AOU       0.027600
     18 C35          2.0180     1.6770     0.2080 cd         1 AOU      -0.406200
     19 C36          2.9810     2.5680     0.5800 cc         1 AOU       0.339000
     20 C37          3.1190     4.0440     0.4270 c3         1 AOU      -0.103000
     21 C39          3.6410     4.7070     1.7010 c3         1 AOU      -0.085600
     22 C38          4.0050     4.3620    -0.7810 c3         1 AOU      -0.085600
     23 O29          3.9650     1.9080     1.1820 os         1 AOU      -0.116100
     24 C34          2.5460     0.4230     0.6380 cd         1 AOU       0.419800
     25 C10          1.9680    -0.9240     0.4910 ca         1 AOU      -0.120500
     26 C15          1.6030    -1.6950     1.5950 ca         1 AOU       0.058400
     27 CL1          1.7770    -1.0510     3.1910 cl         1 AOU      -0.091900
     28 C5           1.1680    -2.7220    -0.9360 ca         1 AOU      -0.122000
     29 C14          1.7360    -1.4710    -0.7710 ca         1 AOU       0.058400
     30 CL2          2.1560    -0.5620    -2.1780 cl         1 AOU      -0.091900
     31 H1           0.3710    -4.4340     0.0660 ha         1 AOU       0.146000
     32 H2          -0.1060     0.5860     1.8390 h4         1 AOU       0.161000
     33 H3          -1.1100     1.8550    -3.0420 ha         1 AOU       0.137000
     34 H4          -4.6780    -0.4960    -2.7890 ha         1 AOU       0.137000
     35 H5           0.7510    -3.5180     2.3310 ha         1 AOU       0.154000
     36 H6          -4.0130    -2.1540     0.3470 ha         1 AOU       0.138000
     37 H7          -6.2490    -0.5800    -0.9930 ha         1 AOU       0.099000
     38 H9          -3.1900     0.9800    -4.0540 ha         1 AOU       0.117000
     39 H10         -2.3010    -1.9360     1.7910 h1         1 AOU       0.059367
     40 H11         -1.8160    -0.6070     2.8470 h1         1 AOU       0.059367
     41 H12         -3.4160    -0.5920     2.1090 h1         1 AOU       0.059367
     42 H13          2.1180     4.4260     0.2180 hc         1 AOU       0.084700
     43 H14          3.6340     5.7900     1.5730 hc         1 AOU       0.042033
     44 H15          3.0190     4.4700     2.5630 hc         1 AOU       0.042033
     45 H16          4.6650     4.4070     1.9220 hc         1 AOU       0.042033
     46 H17          3.6120     3.9050    -1.6890 hc         1 AOU       0.042033
     47 H18          4.0420     5.4400    -0.9360 hc         1 AOU       0.042033
     48 H19          5.0260     4.0080    -0.6310 hc         1 AOU       0.042033
     49 H20          0.9990    -3.1160    -1.9270 ha         1 AOU       0.154000
     50 C20          0.7980     1.9640    -0.5750 c          1 AOU       0.665900
     51 C18         -4.4470    -1.3880    -0.2860 cf         1 AOU      -0.200200
     52 O27          0.8180     2.8220    -1.4450 o          1 AOU      -0.554100
@<TRIPOS>BOND
     1     1     9 ar  
     2     1    28 ar  
     3     1    31 1   
     4     2     7 2   
     5     2    16 1   
     6     2    32 1   
     7     3     5 ar  
     8     3     7 1   
     9     3    11 ar  
    10     4    23 1   
    11     4    24 2   
    12     5    15 ar  
    13     5    33 1   
    14     6     8 ar  
    15     6    11 ar  
    16     6    51 1   
    17     7    50 1   
    18     8    15 ar  
    19     8    34 1   
    20     9    26 ar  
    21     9    35 1   
    22    10    12 1   
    23    10    13 1   
    24    10    14 1   
    25    11    16 1   
    26    12    37 1   
    27    12    51 2   
    28    15    38 1   
    29    16    17 1   
    30    17    39 1   
    31    17    40 1   
    32    17    41 1   
    33    18    19 2   
    34    18    24 1   
    35    18    50 1   
    36    19    20 1   
    37    19    23 1   
    38    20    21 1   
    39    20    22 1   
    40    20    42 1   
    41    21    43 1   
    42    21    44 1   
    43    21    45 1   
    44    22    46 1   
    45    22    47 1   
    46    22    48 1   
    47    24    25 1   
    48    25    26 ar  
    49    25    29 ar  
    50    26    27 1   
    51    28    29 ar  
    52    28    49 1   
    53    29    30 1   
    54    36    51 1   
    55    50    52 2   
@<TRIPOS>SUBSTRUCTURE
     1 AOU         1 TEMP              0 ****  ****    0 ROOT
