@<TRIPOS>MOLECULE
AOU
   52    55     1     0     0
SMALL
No Charge or Current Charge


@<TRIPOS>ATOM
      1 C2           0.8980    -3.5110     0.3130 ca         1 AOU      -0.077000
      2 C8          -0.5750     0.3570     1.0430 cc         1 AOU      -0.108100
      3 C13         -1.5230     0.8940    -1.0050 ca         1 AOU      -0.046800
      4 N2           3.8040     0.5470     1.3040 nc         1 AOU      -0.351300
      5 C4          -1.7910     1.4150    -2.2780 ca         1 AOU      -0.097000
      6 C11         -3.5970    -0.3770    -0.9780 ca         1 AOU      -0.002800
      7 C1          -0.3720     1.0560    -0.1390 cd         1 AOU      -0.268400
      8 C3          -3.8890     0.1650    -2.2530 ca         1 AOU      -0.122000
      9 C6           1.1820    -3.0150     1.5950 ca         1 AOU      -0.104000
     10 C21         -6.7830    -2.5030     0.0130 c          1 AOU       0.696200
     11 C9          -2.3850     0.0340    -0.3590 ca         1 AOU      -0.064200
     12 C19         -5.8860    -1.4590    -0.5740 ce         1 AOU      -0.218200
     13 O30         -6.2980    -3.3690     0.7250 o          1 AOU      -0.723500
     14 O28         -7.9730    -2.4380    -0.2510 o          1 AOU      -0.723500
     15 C40         -2.9990     1.0510    -2.8970 ca         1 AOU      -0.123000
     16 N1          -1.8220    -0.2710     0.8900 na         1 AOU      -0.055700
     17 C33         -2.5390    -0.9770     1.9630 c3         1 AOU       0.056900
     18 C35          2.0760     1.6480     0.3120 cd         1 AOU      -0.275600
     19 C36          3.0640     2.5660     0.5370 cc         1 AOU       0.229300
     20 C37          3.1710     4.0550     0.2790 c3         1 AOU      -0.103000
     21 C39          3.7550     4.8200     1.4910 c3         1 AOU      -0.085600
     22 C38          3.9710     4.3440    -1.0100 c3         1 AOU      -0.085600
     23 O29          4.1120     1.9400     1.1660 os         1 AOU      -0.071700
     24 C34          2.5990     0.4160     0.7800 cd         1 AOU       0.354500
     25 C10          2.0290    -0.9330     0.6250 ca         1 AOU      -0.120500
     26 C15          1.7500    -1.7400     1.7540 ca         1 AOU       0.150000
     27 Cl1          2.0380    -1.1610     3.3960 cl         1 AOU      -0.183500
     28 C5           1.1950    -2.7290    -0.8140 ca         1 AOU      -0.104000
     29 C14          1.7600    -1.4530    -0.6630 ca         1 AOU       0.150000
     30 Cl2          2.1590    -0.5450    -2.1220 cl         1 AOU      -0.183500
     31 H1           0.4580    -4.4990     0.1940 ha         1 AOU       0.128000
     32 H2          -0.0050     0.3100     1.9640 h4         1 AOU       0.211000
     33 H3          -1.0930     2.0790    -2.7820 ha         1 AOU       0.119000
     34 H4          -4.8000    -0.1240    -2.7700 ha         1 AOU       0.119000
     35 H5           0.9550    -3.6190     2.4710 ha         1 AOU       0.136000
     36 H6          -4.0640    -2.1310     0.2140 ha         1 AOU       0.188000
     37 H7          -6.3940    -0.7210    -1.1900 ha         1 AOU       0.149000
     38 H9          -3.2400     1.4400    -3.8830 ha         1 AOU       0.099000
     39 H10         -2.4970    -2.0580     1.7880 h1         1 AOU       0.059367
     40 H11         -2.0610    -0.7600     2.9270 h1         1 AOU       0.059367
     41 H12         -3.5810    -0.6390     2.0080 h1         1 AOU       0.059367
     42 H13          2.1620     4.4570     0.1330 hc         1 AOU       0.084700
     43 H14          3.7380     5.9020     1.3110 hc         1 AOU       0.042033
     44 H15          3.1660     4.6180     2.3950 hc         1 AOU       0.042033
     45 H16          4.7930     4.5240     1.6840 hc         1 AOU       0.042033
     46 H17          3.5120     3.8420    -1.8700 hc         1 AOU       0.042033
     47 H18          3.9980     5.4200    -1.2190 hc         1 AOU       0.042033
     48 H19          5.0040     3.9860    -0.9160 hc         1 AOU       0.042033
     49 H20          0.9900    -3.1150    -1.8090 ha         1 AOU       0.136000
     50 C20          0.8060     1.9380    -0.4010 c          1 AOU       0.665900
     51 C18         -4.5320    -1.3580    -0.3930 cf         1 AOU      -0.250200
     52 O27          0.7240     2.8730    -1.1850 o          1 AOU      -0.554100
@<TRIPOS>BOND
     1     1     9 ar  
     2     1    28 ar  
     3     1    31 1   
     4     2     7 2   
     5     2    16 1   
     6     2    32 1   
     7     3     5 ar  
     8     3     7 1   
     9     3    11 ar  
    10     4    23 1   
    11     4    24 2   
    12     5    15 ar  
    13     5    33 1   
    14     6     8 ar  
    15     6    11 ar  
    16     6    51 1   
    17     7    50 1   
    18     8    15 ar  
    19     8    34 1   
    20     9    26 ar  
    21     9    35 1   
    22    10    12 1   
    23    10    13 1   
    24    10    14 1   
    25    11    16 1   
    26    12    37 1   
    27    12    51 2   
    28    15    38 1   
    29    16    17 1   
    30    17    39 1   
    31    17    40 1   
    32    17    41 1   
    33    18    19 2   
    34    18    24 1   
    35    18    50 1   
    36    19    20 1   
    37    19    23 1   
    38    20    21 1   
    39    20    22 1   
    40    20    42 1   
    41    21    43 1   
    42    21    44 1   
    43    21    45 1   
    44    22    46 1   
    45    22    47 1   
    46    22    48 1   
    47    24    25 1   
    48    25    26 ar  
    49    25    29 ar  
    50    26    27 1   
    51    28    29 ar  
    52    28    49 1   
    53    29    30 1   
    54    36    51 1   
    55    50    52 2   
@<TRIPOS>SUBSTRUCTURE
     1 AOU         1 TEMP              0 ****  ****    0 ROOT
