@<TRIPOS>MOLECULE
AOX
   51    54     1     0     0
SMALL
No Charge or Current Charge


@<TRIPOS>ATOM
      1 C1          -2.4330    -1.5450     0.4300 c6         1 AOX      -0.065400
      2 C2          -3.9660    -1.4370     0.1960 c6         1 AOX      -0.112400
      3 C3          -4.5260    -0.0810     0.6880 c6         1 AOX       0.172300
      4 C4          -3.7540     1.1050     0.0590 c6         1 AOX      -0.068400
      5 C5          -2.2270     0.9780     0.3270 c6         1 AOX      -0.054700
      6 C6          -1.4500     2.2200    -0.1830 c6         1 AOX      -0.068400
      7 C7           0.0340     2.1490     0.2430 c6         1 AOX      -0.070400
      8 C8           0.7140     0.8340    -0.2290 c6         1 AOX      -0.041700
      9 C9          -0.1020    -0.4290     0.2470 c6         1 AOX      -0.048700
     10 C10         -1.6180    -0.3720    -0.2190 c6         1 AOX      -0.030000
     11 C11          0.6400    -1.7620    -0.1320 c6         1 AOX      -0.072400
     12 C12          2.1220    -1.7880     0.3490 c6         1 AOX      -0.051400
     13 C13          2.9200    -0.5510    -0.1670 c5         1 AOX      -0.153000
     14 C14          2.1700     0.7320     0.3040 c5         1 AOX      -0.061700
     15 C15          3.1780     1.8650    -0.0280 c5         1 AOX      -0.067400
     16 C16          4.5550     1.1860     0.2820 c5         1 AOX      -0.191400
     17 C17          4.3020    -0.3260     0.5010 c          1 AOX       0.579100
     18 C18          3.1290    -0.6940    -1.7160 c3         1 AOX      -0.078100
     19 C19         -1.7300    -0.4800    -1.7880 c3         1 AOX      -0.082100
     20 O3          -5.9170     0.0160     0.3700 oh         1 AOX      -0.660000
     21 O17          4.6780    -0.9370     1.4940 o          1 AOX      -0.513100
     22 H1          -2.2420    -1.5760     1.5120 hc         1 AOX       0.040700
     23 H2          -2.0960    -2.5130     0.0350 hc         1 AOX       0.040700
     24 H3          -4.1970    -1.5780    -0.8680 hc         1 AOX       0.044700
     25 H4          -4.4690    -2.2570     0.7260 hc         1 AOX       0.044700
     26 H5          -4.3940    -0.0330     1.7790 h1         1 AOX       0.025700
     27 H6          -3.9600     1.1710    -1.0170 hc         1 AOX       0.053200
     28 H7          -4.1260     2.0420     0.4960 hc         1 AOX       0.053200
     29 H8          -2.1110     0.9710     1.4210 hc         1 AOX       0.042700
     30 H9          -1.5290     2.3110    -1.2750 hc         1 AOX       0.042700
     31 H10         -1.8960     3.1350     0.2310 hc         1 AOX       0.042700
     32 H11          0.5670     3.0180    -0.1670 hc         1 AOX       0.039200
     33 H12          0.1020     2.2320     1.3360 hc         1 AOX       0.039200
     34 H13          0.7580     0.8540    -1.3250 hc         1 AOX       0.052700
     35 H14         -0.1110    -0.3970     1.3460 hc         1 AOX       0.042700
     36 H15          0.1300    -2.6210     0.3210 hc         1 AOX       0.042200
     37 H16          0.6050    -1.9330    -1.2140 hc         1 AOX       0.042200
     38 H17          2.1320    -1.8050     1.4480 hc         1 AOX       0.050200
     39 H18          2.6070    -2.7200     0.0270 hc         1 AOX       0.050200
     40 H19          2.0550     0.6990     1.3960 hc         1 AOX       0.046700
     41 H20          3.1050     2.1760    -1.0760 hc         1 AOX       0.049700
     42 H21          3.0100     2.7590     0.5840 hc         1 AOX       0.049700
     43 H22          5.1760     1.2950    -0.6130 hc         1 AOX       0.071700
     44 H23          5.0740     1.6160     1.1450 hc         1 AOX       0.071700
     45 H24          2.1840    -0.7220    -2.2680 hc         1 AOX       0.040700
     46 H25          3.7150     0.1270    -2.1430 hc         1 AOX       0.040700
     47 H26          3.6670    -1.6210    -1.9510 hc         1 AOX       0.040700
     48 H27         -1.1280     0.2680    -2.3120 hc         1 AOX       0.033700
     49 H28         -1.4040    -1.4630    -2.1470 hc         1 AOX       0.033700
     50 H29         -2.7550    -0.3530    -2.1470 hc         1 AOX       0.033700
     51 H30         -6.3590    -0.7380     0.8170 ho         1 AOX       0.441000
@<TRIPOS>BOND
     1     1     2 1   
     2     1    10 1   
     3     1    22 1   
     4     1    23 1   
     5     2     3 1   
     6     2    24 1   
     7     2    25 1   
     8     3     4 1   
     9     3    20 1   
    10     3    26 1   
    11     4     5 1   
    12     4    27 1   
    13     4    28 1   
    14     5     6 1   
    15     5    10 1   
    16     5    29 1   
    17     6     7 1   
    18     6    30 1   
    19     6    31 1   
    20     7     8 1   
    21     7    32 1   
    22     7    33 1   
    23     8     9 1   
    24     8    14 1   
    25     8    34 1   
    26     9    10 1   
    27     9    11 1   
    28     9    35 1   
    29    10    19 1   
    30    11    12 1   
    31    11    36 1   
    32    11    37 1   
    33    12    13 1   
    34    12    38 1   
    35    12    39 1   
    36    13    14 1   
    37    13    17 1   
    38    13    18 1   
    39    14    15 1   
    40    14    40 1   
    41    15    16 1   
    42    15    41 1   
    43    15    42 1   
    44    16    17 1   
    45    16    43 1   
    46    16    44 1   
    47    17    21 2   
    48    18    45 1   
    49    18    46 1   
    50    18    47 1   
    51    19    48 1   
    52    19    49 1   
    53    19    50 1   
    54    20    51 1   
@<TRIPOS>SUBSTRUCTURE
     1 AOX         1 TEMP              0 ****  ****    0 ROOT
