@<TRIPOS>MOLECULE
AOX
   51    54     1     0     0
SMALL
bcc


@<TRIPOS>ATOM
      1 C1          -2.3740    -1.4950     0.4810 c6         1 AOX      -0.065400
      2 C2          -3.8840    -1.4070     0.2730 c6         1 AOX      -0.112400
      3 C3          -4.4290    -0.0610     0.7300 c6         1 AOX       0.149100
      4 C4          -3.6960     1.0750     0.0390 c6         1 AOX      -0.068400
      5 C5          -2.1890     0.9730     0.2590 c6         1 AOX      -0.054700
      6 C6          -1.4440     2.1720    -0.3110 c6         1 AOX      -0.068400
      7 C7           0.0200     2.1340     0.0970 c6         1 AOX      -0.070400
      8 C8           0.6910     0.8210    -0.2950 c6         1 AOX      -0.041700
      9 C9          -0.1070    -0.4060     0.2030 c6         1 AOX      -0.048700
     10 C10         -1.5950    -0.3720    -0.2260 c6         1 AOX      -0.030000
     11 C11          0.6090    -1.7170    -0.1610 c6         1 AOX      -0.072400
     12 C12          2.0630    -1.7750     0.3150 c6         1 AOX      -0.051400
     13 C13          2.8270    -0.5540    -0.1730 c5         1 AOX      -0.153000
     14 C14          2.0960     0.7170     0.2730 c5         1 AOX      -0.061700
     15 C15          3.1180     1.8330     0.0530 c5         1 AOX      -0.067400
     16 C16          4.4240     1.1810     0.5260 c5         1 AOX      -0.191400
     17 C17          4.1960    -0.3210     0.4270 c          1 AOX       0.579100
     18 C18          3.0680    -0.6160    -1.6920 c3         1 AOX      -0.078100
     19 C19         -1.7250    -0.5460    -1.7440 c3         1 AOX      -0.082100
     20 O3          -5.8120     0.0790     0.4680 oh         1 AOX      -0.597800
     21 O17          4.9800    -1.1730     0.7730 o          1 AOX      -0.513100
     22 H1          -2.1570    -1.4520     1.5560 hc         1 AOX       0.040700
     23 H2          -2.0320    -2.4730     0.1400 hc         1 AOX       0.040700
     24 H3          -4.1330    -1.5570    -0.7820 hc         1 AOX       0.044700
     25 H4          -4.3730    -2.2150     0.8260 hc         1 AOX       0.044700
     26 H5          -4.2380     0.0270     1.8120 h1         1 AOX       0.025700
     27 H6          -3.9350     1.0740    -1.0300 hc         1 AOX       0.053200
     28 H7          -4.0480     2.0330     0.4360 hc         1 AOX       0.053200
     29 H8          -2.0270     0.9970     1.3470 hc         1 AOX       0.042700
     30 H9          -1.5360     2.1940    -1.4030 hc         1 AOX       0.042700
     31 H10         -1.9070     3.0950     0.0500 hc         1 AOX       0.042700
     32 H11          0.5610     2.9730    -0.3500 hc         1 AOX       0.039200
     33 H12          0.0930     2.2650     1.1840 hc         1 AOX       0.039200
     34 H13          0.7470     0.7950    -1.3900 hc         1 AOX       0.052700
     35 H14         -0.1080    -0.3380     1.3020 hc         1 AOX       0.042700
     36 H15          0.0740    -2.5640     0.2740 hc         1 AOX       0.042200
     37 H16          0.5740    -1.8660    -1.2430 hc         1 AOX       0.042200
     38 H17          2.0880    -1.8040     1.4090 hc         1 AOX       0.050200
     39 H18          2.5300    -2.7000    -0.0340 hc         1 AOX       0.050200
     40 H19          1.9760     0.6300     1.3650 hc         1 AOX       0.046700
     41 H20          3.1750     2.1240    -0.9980 hc         1 AOX       0.049700
     42 H21          2.8770     2.7320     0.6210 hc         1 AOX       0.049700
     43 H22          5.3100     1.4800    -0.0380 hc         1 AOX       0.071700
     44 H23          4.6280     1.4200     1.5740 hc         1 AOX       0.071700
     45 H24          2.1350    -0.6320    -2.2540 hc         1 AOX       0.040700
     46 H25          3.6470     0.2310    -2.0620 hc         1 AOX       0.040700
     47 H26          3.6170    -1.5240    -1.9440 hc         1 AOX       0.040700
     48 H27         -1.0430     0.0990    -2.2970 hc         1 AOX       0.033700
     49 H28         -1.5030    -1.5740    -2.0360 hc         1 AOX       0.033700
     50 H29         -2.7300    -0.3270    -2.1060 hc         1 AOX       0.033700
     51 H30         -6.2720    -0.6550     0.8860 ho         1 AOX       0.402000
@<TRIPOS>BOND
     1     1     2 1   
     2     1    10 1   
     3     1    22 1   
     4     1    23 1   
     5     2     3 1   
     6     2    24 1   
     7     2    25 1   
     8     3     4 1   
     9     3    20 1   
    10     3    26 1   
    11     4     5 1   
    12     4    27 1   
    13     4    28 1   
    14     5     6 1   
    15     5    10 1   
    16     5    29 1   
    17     6     7 1   
    18     6    30 1   
    19     6    31 1   
    20     7     8 1   
    21     7    32 1   
    22     7    33 1   
    23     8     9 1   
    24     8    14 1   
    25     8    34 1   
    26     9    10 1   
    27     9    11 1   
    28     9    35 1   
    29    10    19 1   
    30    11    12 1   
    31    11    36 1   
    32    11    37 1   
    33    12    13 1   
    34    12    38 1   
    35    12    39 1   
    36    13    14 1   
    37    13    17 1   
    38    13    18 1   
    39    14    15 1   
    40    14    40 1   
    41    15    16 1   
    42    15    41 1   
    43    15    42 1   
    44    16    17 1   
    45    16    43 1   
    46    16    44 1   
    47    17    21 2   
    48    18    45 1   
    49    18    46 1   
    50    18    47 1   
    51    19    48 1   
    52    19    49 1   
    53    19    50 1   
    54    20    51 1   
@<TRIPOS>SUBSTRUCTURE
     1 AOX         1 TEMP              0 ****  ****    0 ROOT
