@<TRIPOS>MOLECULE
AOY
   28    29     1     0     0
SMALL
No Charge or Current Charge


@<TRIPOS>ATOM
      1 N1          -0.7500     0.3540    -0.0940 nu         1 AOY      -0.824000
      2 C4           4.2870     0.6490    -0.3880 c6         1 AOY       0.179600
      3 C5           3.3830     1.7290     0.2030 c6         1 AOY      -0.113400
      4 C6           1.9270     1.4000    -0.1410 c6         1 AOY      -0.009200
      5 C7          -2.1310     0.1530    -0.0670 ca         1 AOY       0.300000
      6 C8          -2.9790     1.2500     0.1590 ca         1 AOY      -0.159000
      7 C10         -4.9270    -0.1970    -0.0150 ca         1 AOY      -0.137000
      8 C1           1.5860    -0.0870     0.1050 ce         1 AOY      -0.368400
      9 C2           0.3070    -0.5320     0.1280 c2         1 AOY       0.123000
     10 C3           2.6980    -1.0830     0.3450 c          1 AOY       0.695300
     11 O1           3.9840    -0.6220     0.2050 os         1 AOY      -0.444100
     12 O2           2.4790    -2.2460     0.6550 o          1 AOY      -0.536000
     13 C9          -4.3740     1.0780     0.1880 ca         1 AOY      -0.073500
     14 C11         -4.0860    -1.2980    -0.2490 ca         1 AOY      -0.073500
     15 C12         -2.6910    -1.1220    -0.2760 ca         1 AOY      -0.159000
     16 H2           5.3440     0.8880    -0.2030 h1         1 AOY       0.054200
     17 H3           3.5190     1.7730     1.2920 hc         1 AOY       0.057700
     18 H4           3.6550     2.7160    -0.1950 hc         1 AOY       0.057700
     19 H5           1.2740     2.0550     0.4530 hc         1 AOY       0.038700
     20 H6           1.7390     1.6420    -1.1970 hc         1 AOY       0.038700
     21 H7          -2.5590     2.2390     0.3190 ha         1 AOY       0.118000
     22 H8          -6.0070    -0.3320     0.0060 ha         1 AOY       0.119000
     23 H10          0.0440    -1.5810     0.3130 h4         1 AOY       0.219000
     24 H11         -5.0250     1.9320     0.3670 ha         1 AOY       0.116000
     25 H12         -4.5140    -2.2850    -0.4120 ha         1 AOY       0.116000
     26 H13         -2.0530    -1.9780    -0.4700 ha         1 AOY       0.118000
     27 H14         -0.4780     1.3350    -0.1370 hn         1 AOY       0.493000
     28 H1           4.1360     0.5840    -1.4760 h1         1 AOY       0.054200
@<TRIPOS>BOND
     1     1     5 1   
     2     1     9 1   
     3     1    27 1   
     4     2     3 1   
     5     2    11 1   
     6     2    16 1   
     7     2    28 1   
     8     3     4 1   
     9     3    17 1   
    10     3    18 1   
    11     4     8 1   
    12     4    19 1   
    13     4    20 1   
    14     5     6 ar  
    15     5    15 ar  
    16     6    13 ar  
    17     6    21 1   
    18     7    13 ar  
    19     7    14 ar  
    20     7    22 1   
    21     8     9 2   
    22     8    10 1   
    23     9    23 1   
    24    10    11 1   
    25    10    12 2   
    26    13    24 1   
    27    14    15 ar  
    28    14    25 1   
    29    15    26 1   
@<TRIPOS>SUBSTRUCTURE
     1 AOY         1 TEMP              0 ****  ****    0 ROOT
