@<TRIPOS>MOLECULE
AOY
   28    29     1     0     0
SMALL
abcg2


@<TRIPOS>ATOM
      1 N1          -0.7820     0.5280    -0.0120 nu         1 AOY      -0.824000
      2 C4           4.2500     0.5740    -0.4080 c6         1 AOY       0.179600
      3 C5           3.4570     1.6260     0.3260 c6         1 AOY      -0.113400
      4 C6           1.9900     1.4830    -0.0430 c6         1 AOY      -0.009200
      5 C7          -2.1370     0.2040    -0.0170 ca         1 AOY       0.300000
      6 C8          -3.0580     1.2540    -0.0140 ca         1 AOY      -0.159000
      7 C10         -4.8880    -0.3120    -0.0330 ca         1 AOY      -0.137000
      8 C1           1.5610     0.0420     0.0370 ce         1 AOY      -0.368400
      9 C2           0.2560    -0.3270     0.0480 c2         1 AOY       0.123000
     10 C3           2.5350    -1.0430     0.1010 c          1 AOY       0.695300
     11 O1           3.8330    -0.7440    -0.0400 os         1 AOY      -0.444100
     12 O2           2.2620    -2.2130     0.2860 o          1 AOY      -0.536000
     13 C9          -4.4180     0.9950    -0.0220 ca         1 AOY      -0.073500
     14 C11         -3.9720    -1.3550    -0.0360 ca         1 AOY      -0.073500
     15 C12         -2.6070    -1.1090    -0.0310 ca         1 AOY      -0.159000
     16 H2           5.3110     0.6220    -0.1700 h1         1 AOY       0.054200
     17 H3           3.5980     1.5100     1.4040 hc         1 AOY       0.057700
     18 H4           3.8310     2.6140     0.0550 hc         1 AOY       0.057700
     19 H5           1.3820     2.1030     0.6230 hc         1 AOY       0.038700
     20 H6           1.8300     1.8720    -1.0550 hc         1 AOY       0.038700
     21 H7          -2.7050     2.2790    -0.0030 ha         1 AOY       0.118000
     22 H8          -5.9510    -0.5140    -0.0380 ha         1 AOY       0.119000
     23 H10          0.0030    -1.3760     0.1040 h4         1 AOY       0.219000
     24 H11         -5.1140     1.8230    -0.0200 ha         1 AOY       0.116000
     25 H12         -4.3170    -2.3810    -0.0470 ha         1 AOY       0.116000
     26 H13         -1.9280    -1.9510    -0.0410 ha         1 AOY       0.118000
     27 H14         -0.5770     1.5160    -0.0450 hn         1 AOY       0.493000
     28 H1           4.1420     0.6950    -1.4900 h1         1 AOY       0.054200
@<TRIPOS>BOND
     1     1     5 1   
     2     1     9 1   
     3     1    27 1   
     4     2     3 1   
     5     2    11 1   
     6     2    16 1   
     7     2    28 1   
     8     3     4 1   
     9     3    17 1   
    10     3    18 1   
    11     4     8 1   
    12     4    19 1   
    13     4    20 1   
    14     5     6 ar  
    15     5    15 ar  
    16     6    13 ar  
    17     6    21 1   
    18     7    13 ar  
    19     7    14 ar  
    20     7    22 1   
    21     8     9 2   
    22     8    10 1   
    23     9    23 1   
    24    10    11 1   
    25    10    12 2   
    26    13    24 1   
    27    14    15 ar  
    28    14    25 1   
    29    15    26 1   
@<TRIPOS>SUBSTRUCTURE
     1 AOY         1 TEMP              0 ****  ****    0 ROOT
