@<TRIPOS>MOLECULE
AOZ
   27    27     1     0     0
SMALL
No Charge or Current Charge


@<TRIPOS>ATOM
      1 O            3.1110    -1.0150     1.5750 o          1 AOZ      -0.756000
      2 C            2.7860    -1.5100     0.5010 c          1 AOZ       0.717000
      3 CA           1.7470    -0.7060    -0.4030 c3         1 AOZ       0.054500
      4 CB           1.2060    -1.5470    -1.5930 c3         1 AOZ      -0.056100
      5 N            0.6000    -0.1220     0.3800 n7         1 AOZ      -0.874400
      6 CAI         -0.1220     1.0480    -0.2400 c3         1 AOZ       0.044500
      7 CAE          0.7370     2.3760    -0.3290 c          1 AOZ       0.693000
      8 OAB          0.9180     2.8840    -1.4280 o          1 AOZ      -0.747000
      9 OAF          1.2310     2.8250     0.6990 o          1 AOZ      -0.747000
     10 CAK         -1.4390     1.3110     0.5330 c3         1 AOZ      -0.081700
     11 CAL         -2.4750     0.2310     0.3550 cc         1 AOZ       0.301300
     12 NAN         -3.3870     0.2820    -0.6650 nc         1 AOZ      -0.681000
     13 CAP         -2.6860    -0.8670     1.1450 cd         1 AOZ      -0.222000
     14 CAQ         -4.1570    -0.7870    -0.5310 cd         1 AOZ       0.339400
     15 NAQ         -3.7640    -1.5220     0.5700 na         1 AOZ      -0.320500
     16 OXT          3.1970    -2.6060     0.1370 o          1 AOZ      -0.756000
     17 H1           2.3300     0.1210    -0.8320 h1         1 AOZ       0.003700
     18 H2           0.5650    -0.9480    -2.2500 hc         1 AOZ       0.005367
     19 H3           2.0330    -1.9250    -2.2060 hc         1 AOZ       0.005367
     20 H4           0.6240    -2.4050    -1.2340 hc         1 AOZ       0.005367
     21 H5           1.0050     0.2170     1.2660 hn         1 AOZ       0.459000
     22 H7          -0.4120     0.8000    -1.2700 h1         1 AOZ       0.033700
     23 H9          -1.2210     1.4440     1.6000 hc         1 AOZ       0.040200
     24 H10         -1.8590     2.2650     0.1910 hc         1 AOZ       0.040200
     25 H12         -2.1630    -1.2090     2.0300 h4         1 AOZ       0.158000
     26 H13         -4.9890    -1.0790    -1.1620 h5         1 AOZ       0.020100
     27 H14         -4.1970    -2.3820     0.8860 hn         1 AOZ       0.321000
@<TRIPOS>BOND
     1     1     2 1   
     2     2     3 1   
     3     2    16 1   
     4     3     4 1   
     5     3     5 1   
     6     3    17 1   
     7     4    18 1   
     8     4    19 1   
     9     4    20 1   
    10     5     6 1   
    11     5    21 1   
    12     6     7 1   
    13     6    10 1   
    14     6    22 1   
    15     7     8 1   
    16     7     9 1   
    17    10    11 1   
    18    10    23 1   
    19    10    24 1   
    20    11    12 1   
    21    11    13 2   
    22    12    14 2   
    23    13    15 1   
    24    13    25 1   
    25    14    15 1   
    26    14    26 1   
    27    15    27 1   
@<TRIPOS>SUBSTRUCTURE
     1 AOZ         1 TEMP              0 ****  ****    0 ROOT
