@<TRIPOS>MOLECULE
AOZ
   27    27     1     0     0
SMALL
abcg2


@<TRIPOS>ATOM
      1 O            2.8150    -1.1580     1.5010 o          1 AOZ      -0.756000
      2 C            2.5180    -1.5310     0.3480 c          1 AOZ       0.717000
      3 CA           1.4300    -0.7340    -0.4110 c3         1 AOZ       0.054500
      4 CB           0.4590    -1.6640    -1.1290 c3         1 AOZ      -0.056100
      5 N            0.7230     0.1620     0.4820 n7         1 AOZ      -0.874400
      6 CAI          0.0350     1.2620    -0.1570 c3         1 AOZ       0.044500
      7 CAE          0.7880     2.6130    -0.0570 c          1 AOZ       0.693000
      8 OAB          0.3370     3.5460    -0.7550 o          1 AOZ      -0.747000
      9 OAF          1.7590     2.6780     0.7240 o          1 AOZ      -0.747000
     10 CAK         -1.3810     1.4330     0.4320 c3         1 AOZ      -0.081700
     11 CAL         -2.2360     0.2370     0.2050 cc         1 AOZ       0.301300
     12 NAN         -2.9300     0.0530    -0.9620 nc         1 AOZ      -0.681000
     13 CAP         -2.4130    -0.8490     1.0160 cd         1 AOZ      -0.222000
     14 CAQ         -3.5110    -1.1160    -0.8560 cd         1 AOZ       0.339400
     15 NAQ         -3.2310    -1.6980     0.3250 na         1 AOZ      -0.320500
     16 OXT          3.0440    -2.4770    -0.2750 o          1 AOZ      -0.756000
     17 H1           1.9800    -0.1740    -1.1940 h1         1 AOZ       0.003700
     18 H2          -0.2760    -1.0990    -1.7050 hc         1 AOZ       0.005367
     19 H3           0.9850    -2.3260    -1.8150 hc         1 AOZ       0.005367
     20 H4          -0.0980    -2.2690    -0.4110 hc         1 AOZ       0.005367
     21 H5           1.4020     0.5590     1.1200 hn         1 AOZ       0.459000
     22 H7          -0.0950     1.0460    -1.2240 h1         1 AOZ       0.033700
     23 H9          -1.2930     1.6320     1.5040 hc         1 AOZ       0.040200
     24 H10         -1.8550     2.3090    -0.0160 hc         1 AOZ       0.040200
     25 H12         -2.0280    -1.0860     1.9920 h4         1 AOZ       0.158000
     26 H13         -4.1490    -1.5790    -1.5940 h5         1 AOZ       0.020100
     27 H14         -3.5600    -2.5960     0.6370 hn         1 AOZ       0.321000
@<TRIPOS>BOND
     1     1     2 1   
     2     2     3 1   
     3     2    16 1   
     4     3     4 1   
     5     3     5 1   
     6     3    17 1   
     7     4    18 1   
     8     4    19 1   
     9     4    20 1   
    10     5     6 1   
    11     5    21 1   
    12     6     7 1   
    13     6    10 1   
    14     6    22 1   
    15     7     8 1   
    16     7     9 1   
    17    10    11 1   
    18    10    23 1   
    19    10    24 1   
    20    11    12 1   
    21    11    13 2   
    22    12    14 2   
    23    13    15 1   
    24    13    25 1   
    25    14    15 1   
    26    14    26 1   
    27    15    27 1   
@<TRIPOS>SUBSTRUCTURE
     1 AOZ         1 TEMP              0 ****  ****    0 ROOT
