@<TRIPOS>MOLECULE
AP1
   96    99     1     0     0
SMALL
bcc


@<TRIPOS>ATOM
      1 C1           2.8820     0.0140    -1.7570 c          1 AP1       0.660100
      2 C2           4.0860    -0.4620    -0.9620 c6         1 AP1       0.041700
      3 C3           4.4400    -1.8640    -1.4790 c6         1 AP1      -0.085400
      4 C4           5.5480    -2.5160    -0.6700 c6         1 AP1      -0.076400
      5 C5           5.1240    -2.5590     0.7870 c6         1 AP1      -0.086400
      6 C6           4.8330    -1.1580     1.2900 c6         1 AP1       0.100000
      7 C9           2.9290     0.7290     2.4670 c3         1 AP1      -0.089400
      8 C10          1.5520     1.2550     2.8070 ca         1 AP1      -0.001300
      9 C11          0.6770     0.4290     3.5010 ca         1 AP1      -0.227500
     10 C12         -0.5810     0.8970     3.8830 ca         1 AP1       0.157100
     11 C13         -0.9640     2.1970     3.5520 ca         1 AP1       0.016100
     12 C14         -0.0800     3.0230     2.8530 ca         1 AP1       0.157100
     13 O15         -0.5370     4.2610     2.5830 os         1 AP1      -0.302400
     14 O17         -1.4810     0.1830     4.5790 os         1 AP1      -0.302400
     15 C18          0.2830     5.1280     1.8280 c3         1 AP1       0.119700
     16 C19         -2.2650     3.2350     5.1930 c3         1 AP1       0.126700
     17 C20         -1.1730    -1.1570     4.9000 c3         1 AP1       0.119700
     18 C21         -4.4280    -4.7180     3.5180 c3         1 AP1       0.125700
     19 C22          0.8350    -1.8540    -3.8500 ca         1 AP1      -0.187000
     20 C23          0.6340    -2.1980    -5.1750 ca         1 AP1      -0.100000
     21 C24         -0.0060    -1.3360    -6.0600 ca         1 AP1      -0.228000
     22 C25          0.3960    -0.6120    -3.3920 ca         1 AP1      -0.083300
     23 C26          0.5290    -0.2330    -1.9400 c3         1 AP1       0.208400
     24 C27         -0.5370    -0.9260    -1.0990 c3         1 AP1      -0.069400
     25 C28         -0.4410    -0.6330     0.3990 c3         1 AP1      -0.029100
     26 C29         -1.5030    -1.3690     1.1680 ca         1 AP1      -0.066300
     27 C30         -2.6430    -0.7070     1.6290 ca         1 AP1      -0.176000
     28 C31         -3.6380    -1.3810     2.3180 ca         1 AP1       0.121100
     29 C32         -3.5100    -2.7640     2.5510 ca         1 AP1       0.087100
     30 C33         -2.3830    -3.4240     2.0900 ca         1 AP1      -0.194000
     31 C34         -1.3870    -2.7280     1.4070 ca         1 AP1      -0.141000
     32 C35         -0.4490    -0.0970    -5.6030 ca         1 AP1       0.174100
     33 O36         -1.0730     0.8210    -6.3600 os         1 AP1      -0.269900
     34 C37         -1.3430     0.5170    -7.7150 c3         1 AP1      -0.020600
     35 C38         -2.0520     1.6930    -8.4060 c          1 AP1       0.939600
     36 O39         -2.2700     2.7190    -7.7460 o          1 AP1      -0.818300
     37 O40         -2.3340     1.4710    -9.5990 o          1 AP1      -0.818300
     38 C41         -0.2390     0.2530    -4.2650 ca         1 AP1      -0.157000
     39 C42         -4.9150     0.5840     2.6480 c3         1 AP1       0.114700
     40 N7           3.8340    -0.4620     0.4790 n          1 AP1      -0.449800
     41 O43          1.7860    -0.6390    -1.3970 os         1 AP1      -0.422900
     42 O44          2.9470     0.7720    -2.6900 o          1 AP1      -0.504000
     43 C46          4.0440     1.6120     3.0580 c3         1 AP1      -0.069400
     44 C47          1.1760     2.5540     2.4840 ca         1 AP1      -0.227500
     45 O48         -2.1950     2.6650     3.8950 os         1 AP1      -0.308900
     46 O49         -4.7580    -0.8110     2.8050 os         1 AP1      -0.305900
     47 O50         -4.5250    -3.3400     3.2290 os         1 AP1      -0.300900
     48 H2           4.9140     0.2190    -1.1920 h1         1 AP1       0.066700
     49 H31          4.7220    -1.7740    -2.5300 hc         1 AP1       0.067200
     50 H32          3.5540    -2.5020    -1.4340 hc         1 AP1       0.067200
     51 H41A         6.4790    -1.9500    -0.7720 hc         1 AP1       0.043200
     52 H42          5.7410    -3.5190    -1.0520 hc         1 AP1       0.043200
     53 H51          5.9050    -2.9890     1.4160 hc         1 AP1       0.049200
     54 H52          4.2350    -3.1850     0.8990 hc         1 AP1       0.049200
     55 H61          5.7660    -0.5810     1.2860 h1         1 AP1       0.037200
     56 H62          4.4970    -1.2120     2.3210 h1         1 AP1       0.037200
     57 H9           3.0080    -0.2590     2.9260 hc         1 AP1       0.063700
     58 H11          0.9870    -0.5780     3.7430 ha         1 AP1       0.145000
     59 H161         4.8030     2.2920     4.9630 hc         1 AP1       0.035033
     60 H162         3.0620     2.0220     4.9520 hc         1 AP1       0.035033
     61 H163         4.1670     0.6500     4.9970 hc         1 AP1       0.035033
     62 H181        -0.2810     6.0480     1.6950 h1         1 AP1       0.043700
     63 H182         1.2180     5.3620     2.3420 h1         1 AP1       0.043700
     64 H183         0.5180     4.7150     0.8440 h1         1 AP1       0.043700
     65 H191        -3.2750     3.6190     5.3220 h1         1 AP1       0.030367
     66 H192        -2.0710     2.4950     5.9730 h1         1 AP1       0.030367
     67 H193        -1.5590     4.0620     5.3100 h1         1 AP1       0.030367
     68 H201        -2.0290    -1.5460     5.4480 h1         1 AP1       0.043700
     69 H202        -1.0240    -1.7670     4.0060 h1         1 AP1       0.043700
     70 H203        -0.2870    -1.2300     5.5370 h1         1 AP1       0.043700
     71 H211        -5.3270    -4.9840     4.0680 h1         1 AP1       0.033033
     72 H212        -4.3780    -5.3270     2.6110 h1         1 AP1       0.033033
     73 H213        -3.5560    -4.9460     4.1390 h1         1 AP1       0.033033
     74 H22          1.3340    -2.5460    -3.1830 ha         1 AP1       0.115000
     75 H23          0.9790    -3.1580    -5.5370 ha         1 AP1       0.109000
     76 H24         -0.1450    -1.6460    -7.0860 ha         1 AP1       0.139000
     77 H26          0.4320     0.8530    -1.8310 h1         1 AP1       0.070700
     78 H271        -1.5130    -0.6120    -1.4780 hc         1 AP1       0.057700
     79 H272        -0.4750    -2.0060    -1.2640 hc         1 AP1       0.057700
     80 H281         0.5400    -0.9340     0.7670 hc         1 AP1       0.054700
     81 H282        -0.5180     0.4420     0.5820 hc         1 AP1       0.054700
     82 H30         -2.7290     0.3580     1.4530 ha         1 AP1       0.151000
     83 H33         -2.2560    -4.4840     2.2620 ha         1 AP1       0.128000
     84 H34         -0.5120    -3.2670     1.0630 ha         1 AP1       0.130000
     85 H371        -0.4140     0.2960    -8.2550 h1         1 AP1       0.016200
     86 H372        -1.9730    -0.3780    -7.7880 h1         1 AP1       0.016200
     87 H41         -0.5780     1.2230    -3.9180 ha         1 AP1       0.147000
     88 H421        -5.8610     0.8430     3.1190 h1         1 AP1       0.046033
     89 H422        -4.1100     1.1400     3.1340 h1         1 AP1       0.046033
     90 H423        -4.9590     0.8740     1.5940 h1         1 AP1       0.046033
     91 H461         3.9520     2.6240     2.6570 hc         1 AP1       0.047200
     92 H462         5.0180     1.2430     2.7250 hc         1 AP1       0.047200
     93 H47          1.8570     3.1900     1.9400 ha         1 AP1       0.145000
     94 C8           3.1410     0.6080     0.9630 c          1 AP1       0.664100
     95 C16          4.0140     1.6460     4.5780 c3         1 AP1      -0.090100
     96 O45          2.7040     1.4600     0.2050 o          1 AP1      -0.577100
@<TRIPOS>BOND
     1     1     2 1   
     2     1    41 1   
     3     1    42 2   
     4     2     3 1   
     5     2    40 1   
     6     2    48 1   
     7     3     4 1   
     8     3    49 1   
     9     3    50 1   
    10     4     5 1   
    11     4    51 1   
    12     4    52 1   
    13     5     6 1   
    14     5    53 1   
    15     5    54 1   
    16     6    40 1   
    17     6    55 1   
    18     6    56 1   
    19     7     8 1   
    20     7    43 1   
    21     7    57 1   
    22     7    94 1   
    23     8     9 ar  
    24     8    44 ar  
    25     9    10 ar  
    26     9    58 1   
    27    10    11 ar  
    28    10    14 1   
    29    11    12 ar  
    30    11    45 1   
    31    12    13 1   
    32    12    44 ar  
    33    13    15 1   
    34    14    17 1   
    35    15    62 1   
    36    15    63 1   
    37    15    64 1   
    38    16    45 1   
    39    16    65 1   
    40    16    66 1   
    41    16    67 1   
    42    17    68 1   
    43    17    69 1   
    44    17    70 1   
    45    18    47 1   
    46    18    71 1   
    47    18    72 1   
    48    18    73 1   
    49    19    20 ar  
    50    19    22 ar  
    51    19    74 1   
    52    20    21 ar  
    53    20    75 1   
    54    21    32 ar  
    55    21    76 1   
    56    22    23 1   
    57    22    38 ar  
    58    23    24 1   
    59    23    41 1   
    60    23    77 1   
    61    24    25 1   
    62    24    78 1   
    63    24    79 1   
    64    25    26 1   
    65    25    80 1   
    66    25    81 1   
    67    26    27 ar  
    68    26    31 ar  
    69    27    28 ar  
    70    27    82 1   
    71    28    29 ar  
    72    28    46 1   
    73    29    30 ar  
    74    29    47 1   
    75    30    31 ar  
    76    30    83 1   
    77    31    84 1   
    78    32    33 1   
    79    32    38 ar  
    80    33    34 1   
    81    34    35 1   
    82    34    85 1   
    83    34    86 1   
    84    35    36 1   
    85    35    37 1   
    86    38    87 1   
    87    39    46 1   
    88    39    88 1   
    89    39    89 1   
    90    39    90 1   
    91    40    94 1   
    92    43    91 1   
    93    43    92 1   
    94    43    95 1   
    95    44    93 1   
    96    59    95 1   
    97    60    95 1   
    98    61    95 1   
    99    94    96 2   
@<TRIPOS>SUBSTRUCTURE
     1 AP1         1 TEMP              0 ****  ****    0 ROOT
