@<TRIPOS>MOLECULE
AP1
   96    99     1     0     0
SMALL
No Charge or Current Charge


@<TRIPOS>ATOM
      1 C1           2.6430     0.0390    -1.7150 c          1 AP1       0.611100
      2 C2           3.9520    -0.5240    -1.0840 c6         1 AP1       0.041700
      3 C3           4.0380    -2.0620    -1.3290 c6         1 AP1      -0.085400
      4 C4           5.3720    -2.6460    -0.8290 c6         1 AP1      -0.076400
      5 C5           5.5370    -2.3320     0.6680 c6         1 AP1      -0.086400
      6 C6           5.4120    -0.8160     0.9310 c6         1 AP1       0.100000
      7 C9           3.4730     1.0670     2.4790 c3         1 AP1      -0.089400
      8 C10          1.9880     1.2460     2.8250 ca         1 AP1      -0.001300
      9 C11          1.3160     0.2510     3.5560 ca         1 AP1      -0.209500
     10 C12         -0.0340     0.4100     3.9490 ca         1 AP1       0.157100
     11 C13         -0.7310     1.6040     3.5920 ca         1 AP1       0.016100
     12 C14         -0.0590     2.5880     2.8290 ca         1 AP1       0.157100
     13 O15         -0.7570     3.7320     2.4730 os         1 AP1      -0.325600
     14 O17         -0.6690    -0.5870     4.6720 os         1 AP1      -0.325600
     15 C18         -0.1760     4.7800     1.6760 c3         1 AP1       0.142900
     16 C19         -2.8140     1.1550     4.9230 c3         1 AP1       0.149900
     17 C20         -0.0570    -1.8510     4.9810 c3         1 AP1       0.142900
     18 C21         -4.8830    -4.0970     4.2250 c3         1 AP1       0.148900
     19 C22          0.3690    -1.9590    -3.7370 ca         1 AP1      -0.169000
     20 C23          0.2610    -2.3200    -5.0890 ca         1 AP1      -0.082000
     21 C24         -0.0910    -1.3570    -6.0490 ca         1 AP1      -0.210000
     22 C25          0.1250    -0.6320    -3.3280 ca         1 AP1      -0.083300
     23 C26          0.2460    -0.2290    -1.8560 c3         1 AP1       0.231600
     24 C27         -0.8360    -0.8860    -0.9730 c3         1 AP1      -0.069400
     25 C28         -0.7680    -0.4530     0.5090 c3         1 AP1      -0.029100
     26 C29         -1.8820    -1.0790     1.3330 ca         1 AP1      -0.066300
     27 C30         -3.0700    -0.3670     1.5760 ca         1 AP1      -0.158000
     28 C31         -4.1070    -0.9440     2.3440 ca         1 AP1       0.121100
     29 C32         -3.9450    -2.2470     2.8740 ca         1 AP1       0.087100
     30 C33         -2.7510    -2.9590     2.6210 ca         1 AP1      -0.176000
     31 C34         -1.7300    -2.3760     1.8530 ca         1 AP1      -0.123000
     32 C35         -0.3360    -0.0240    -5.6540 ca         1 AP1       0.174100
     33 O36         -0.6840     0.9640    -6.5530 os         1 AP1      -0.293100
     34 C37         -0.8230     0.7050    -7.9710 c3         1 AP1       0.002600
     35 C38         -1.2230     1.9680    -8.7910 c          1 AP1       0.729000
     36 O39         -1.3850     3.0380    -8.2150 o          1 AP1      -0.713000
     37 O40         -1.3620     1.8370   -10.0000 o          1 AP1      -0.713000
     38 C41         -0.2250     0.3290    -4.2990 ca         1 AP1      -0.139000
     39 C42         -5.5200     1.0810     2.1470 c3         1 AP1       0.137900
     40 N7           4.1550    -0.2160     0.3870 n          1 AP1      -0.382800
     41 O43          1.5200    -0.6610    -1.3540 os         1 AP1      -0.446100
     42 O44          2.6230     1.0530    -2.4030 o          1 AP1      -0.455000
     43 C46          4.3720     2.1500     3.1360 c3         1 AP1      -0.069400
     44 C47          1.2920     2.4100     2.4630 ca         1 AP1      -0.209500
     45 O48         -2.0530     1.8840     3.9430 os         1 AP1      -0.332100
     46 O49         -5.2840    -0.2610     2.6090 os         1 AP1      -0.329100
     47 O50         -4.9700    -2.7890     3.6330 os         1 AP1      -0.324100
     48 H2           4.7680    -0.0440    -1.6430 h1         1 AP1       0.066700
     49 H31          3.9240    -2.2740    -2.4010 hc         1 AP1       0.067200
     50 H32          3.2060    -2.5710    -0.8230 hc         1 AP1       0.067200
     51 H41A         6.2090    -2.2190    -1.4000 hc         1 AP1       0.043200
     52 H42          5.3960    -3.7320    -0.9930 hc         1 AP1       0.043200
     53 H51          6.5110    -2.6930     1.0230 hc         1 AP1       0.049200
     54 H52          4.7720    -2.8670     1.2470 hc         1 AP1       0.049200
     55 H61          6.2630    -0.3070     0.4580 h1         1 AP1       0.037200
     56 H62          5.5090    -0.6390     2.0090 h1         1 AP1       0.037200
     57 H9           3.7830     0.1050     2.8970 hc         1 AP1       0.063700
     58 H11          1.8670    -0.6430     3.8290 ha         1 AP1       0.127000
     59 H161         4.9910     2.9120     5.0830 hc         1 AP1       0.035033
     60 H162         3.2930     2.3980     5.0250 hc         1 AP1       0.035033
     61 H163         4.5900     1.1820     5.0840 hc         1 AP1       0.035033
     62 H181        -0.9100     5.5770     1.5050 h1         1 AP1       0.043700
     63 H182         0.6910     5.2210     2.1840 h1         1 AP1       0.043700
     64 H183         0.1430     4.3950     0.6990 h1         1 AP1       0.043700
     65 H191        -3.7840     1.6420     5.0830 h1         1 AP1       0.030367
     66 H192        -3.0110     0.1290     4.5900 h1         1 AP1       0.030367
     67 H193        -2.2860     1.1270     5.8840 h1         1 AP1       0.030367
     68 H201        -0.7640    -2.4910     5.5230 h1         1 AP1       0.043700
     69 H202         0.2400    -2.3750     4.0640 h1         1 AP1       0.043700
     70 H203         0.8290    -1.7120     5.6130 h1         1 AP1       0.043700
     71 H211        -5.8000    -4.3220     4.7830 h1         1 AP1       0.033033
     72 H212        -4.7580    -4.8670     3.4520 h1         1 AP1       0.033033
     73 H213        -4.0370    -4.1540     4.9210 h1         1 AP1       0.033033
     74 H22          0.6450    -2.7130    -3.0030 ha         1 AP1       0.097000
     75 H23          0.4510    -3.3470    -5.3930 ha         1 AP1       0.091000
     76 H24         -0.1680    -1.6610    -7.0890 ha         1 AP1       0.121000
     77 H26          0.1410     0.8620    -1.7610 h1         1 AP1       0.070700
     78 H271        -1.8220    -0.6250    -1.3750 hc         1 AP1       0.057700
     79 H272        -0.7480    -1.9770    -1.0360 hc         1 AP1       0.057700
     80 H281         0.2050    -0.7350     0.9290 hc         1 AP1       0.054700
     81 H282        -0.8190     0.6410     0.5690 hc         1 AP1       0.054700
     82 H30         -3.1690     0.6330     1.1660 ha         1 AP1       0.133000
     83 H33         -2.5950    -3.9610     3.0100 ha         1 AP1       0.110000
     84 H34         -0.8140    -2.9320     1.6650 ha         1 AP1       0.112000
     85 H371         0.1240     0.3300    -8.3810 h1         1 AP1       0.016200
     86 H372        -1.5950    -0.0580    -8.1410 h1         1 AP1       0.016200
     87 H41         -0.4130     1.3580    -4.0040 ha         1 AP1       0.129000
     88 H421        -6.5060     1.4290     2.4780 h1         1 AP1       0.046033
     89 H422        -4.7650     1.7700     2.5460 h1         1 AP1       0.046033
     90 H423        -5.4940     1.1260     1.0500 h1         1 AP1       0.046033
     91 H461         4.0980     3.1430     2.7590 hc         1 AP1       0.047200
     92 H462         5.4130     1.9780     2.8340 hc         1 AP1       0.047200
     93 H47          1.8170     3.1760     1.9030 ha         1 AP1       0.127000
     94 C8           3.7040     1.0070     0.9450 c          1 AP1       0.597100
     95 C16          4.3050     2.1590     4.6770 c3         1 AP1      -0.090100
     96 O45          3.4490     1.9710     0.2360 o          1 AP1      -0.577100
@<TRIPOS>BOND
     1     1     2 1   
     2     1    41 1   
     3     1    42 2   
     4     2     3 1   
     5     2    40 1   
     6     2    48 1   
     7     3     4 1   
     8     3    49 1   
     9     3    50 1   
    10     4     5 1   
    11     4    51 1   
    12     4    52 1   
    13     5     6 1   
    14     5    53 1   
    15     5    54 1   
    16     6    40 1   
    17     6    55 1   
    18     6    56 1   
    19     7     8 1   
    20     7    43 1   
    21     7    57 1   
    22     7    94 1   
    23     8     9 ar  
    24     8    44 ar  
    25     9    10 ar  
    26     9    58 1   
    27    10    11 ar  
    28    10    14 1   
    29    11    12 ar  
    30    11    45 1   
    31    12    13 1   
    32    12    44 ar  
    33    13    15 1   
    34    14    17 1   
    35    15    62 1   
    36    15    63 1   
    37    15    64 1   
    38    16    45 1   
    39    16    65 1   
    40    16    66 1   
    41    16    67 1   
    42    17    68 1   
    43    17    69 1   
    44    17    70 1   
    45    18    47 1   
    46    18    71 1   
    47    18    72 1   
    48    18    73 1   
    49    19    20 ar  
    50    19    22 ar  
    51    19    74 1   
    52    20    21 ar  
    53    20    75 1   
    54    21    32 ar  
    55    21    76 1   
    56    22    23 1   
    57    22    38 ar  
    58    23    24 1   
    59    23    41 1   
    60    23    77 1   
    61    24    25 1   
    62    24    78 1   
    63    24    79 1   
    64    25    26 1   
    65    25    80 1   
    66    25    81 1   
    67    26    27 ar  
    68    26    31 ar  
    69    27    28 ar  
    70    27    82 1   
    71    28    29 ar  
    72    28    46 1   
    73    29    30 ar  
    74    29    47 1   
    75    30    31 ar  
    76    30    83 1   
    77    31    84 1   
    78    32    33 1   
    79    32    38 ar  
    80    33    34 1   
    81    34    35 1   
    82    34    85 1   
    83    34    86 1   
    84    35    36 1   
    85    35    37 1   
    86    38    87 1   
    87    39    46 1   
    88    39    88 1   
    89    39    89 1   
    90    39    90 1   
    91    40    94 1   
    92    43    91 1   
    93    43    92 1   
    94    43    95 1   
    95    44    93 1   
    96    59    95 1   
    97    60    95 1   
    98    61    95 1   
    99    94    96 2   
@<TRIPOS>SUBSTRUCTURE
     1 AP1         1 TEMP              0 ****  ****    0 ROOT
