@<TRIPOS>MOLECULE
AP2
   41    43     1     0     0
SMALL
abcg2


@<TRIPOS>ATOM
      1 PB           2.5470    -0.7680    -2.8530 p5         1 AP2       1.343500
      2 O1B          3.2340     0.5600    -2.5220 o          1 AP2      -0.953833
      3 O2B          3.1500    -1.9720    -2.1100 o          1 AP2      -0.953833
      4 O3B          2.3780    -1.0280    -4.3550 o          1 AP2      -0.953833
      5 C3A          0.8140    -0.6320    -2.1630 c3         1 AP2      -0.744400
      6 PA          -0.0150     0.9460    -2.4480 p5         1 AP2       1.420400
      7 O1A          0.3330     1.9710    -1.3880 o          1 AP2      -0.847000
      8 O2A          0.0380     1.3520    -3.8970 o          1 AP2      -0.847000
      9 O5          -1.6380     0.5370    -2.2190 os         1 AP2      -0.581400
     10 C5          -2.3790     0.9180    -1.0980 c3         1 AP2       0.240600
     11 C4          -2.6530    -0.2450    -0.1590 c5         1 AP2       0.136300
     12 O4          -1.4420    -0.7600     0.4120 os         1 AP2      -0.390000
     13 C3          -3.5130     0.1780     1.0250 c5         1 AP2       0.093300
     14 O3          -4.2290    -0.9360     1.4970 oh         1 AP2      -0.717000
     15 C2          -2.4340     0.6000     2.0230 c5         1 AP2       0.058300
     16 O2          -2.8260     0.6000     3.3630 oh         1 AP2      -0.708000
     17 C1          -1.3850    -0.4830     1.7790 c5         1 AP2       0.333300
     18 N9          -0.0460    -0.0870     2.1420 na         1 AP2      -0.289300
     19 C8           0.7870     0.7660     1.4650 cc         1 AP2       0.489700
     20 N7           1.9080     0.9820     2.0950 nd         1 AP2      -0.557100
     21 C7           1.8100     0.2420     3.2440 ca         1 AP2      -0.056600
     22 C6           2.6800     0.0420     4.3300 ca         1 AP2       0.418900
     23 N6           3.8660     0.6540     4.4250 nv         1 AP2      -1.077900
     24 N1           2.2850    -0.7760     5.3110 nb         1 AP2      -0.337000
     25 C10          1.0930    -1.3620     5.2220 ca         1 AP2       0.122900
     26 N3           0.1920    -1.2510     4.2620 nb         1 AP2      -0.206000
     27 C9           0.6010    -0.4340     3.2930 ca         1 AP2       0.092500
     28 H3A1         0.8370    -0.8030    -1.0850 hc         1 AP2       0.025200
     29 H3A2         0.2050    -1.4360    -2.5890 hc         1 AP2       0.025200
     30 H5'1        -3.3540     1.2930    -1.4330 h1         1 AP2      -0.002300
     31 H5'2        -1.8970     1.7360    -0.5500 h1         1 AP2      -0.002300
     32 H4          -3.1330    -1.0540    -0.7190 h1         1 AP2       0.086700
     33 H3          -4.1850     1.0090     0.7700 h1         1 AP2       0.035700
     34 HO3         -4.5020    -0.7500     2.4030 ho         1 AP2       0.489000
     35 H2          -2.0280     1.5730     1.7160 h1         1 AP2       0.078700
     36 HO2         -3.2790     1.4280     3.5510 ho         1 AP2       0.485000
     37 H1          -1.6170    -1.3690     2.3830 h2         1 AP2       0.083700
     38 H8           0.5310     1.1830     0.4920 h5         1 AP2       0.180800
     39 HN61         4.5160     0.3670     5.1360 hn         1 AP2       0.488500
     40 HN62         4.2350     1.1640     3.6410 hn         1 AP2       0.488500
     41 H6           0.8340    -2.0160     6.0480 h5         1 AP2       0.007100
@<TRIPOS>BOND
     1     1     2 1   
     2     1     3 1   
     3     1     4 1   
     4     1     5 1   
     5     5     6 1   
     6     5    28 1   
     7     5    29 1   
     8     6     7 1   
     9     6     8 1   
    10     6     9 1   
    11     9    10 1   
    12    10    11 1   
    13    10    30 1   
    14    10    31 1   
    15    11    12 1   
    16    11    13 1   
    17    11    32 1   
    18    12    17 1   
    19    13    14 1   
    20    13    15 1   
    21    13    33 1   
    22    14    34 1   
    23    15    16 1   
    24    15    17 1   
    25    15    35 1   
    26    16    36 1   
    27    17    18 1   
    28    17    37 1   
    29    18    19 1   
    30    18    27 1   
    31    19    20 2   
    32    19    38 1   
    33    20    21 1   
    34    21    22 ar  
    35    21    27 ar  
    36    22    23 1   
    37    22    24 ar  
    38    23    39 1   
    39    23    40 1   
    40    24    25 ar  
    41    25    26 ar  
    42    25    41 1   
    43    26    27 ar  
@<TRIPOS>SUBSTRUCTURE
     1 AP2         1 TEMP              0 ****  ****    0 ROOT
