@<TRIPOS>MOLECULE
AP2
   41    43     1     0     0
SMALL
No Charge or Current Charge


@<TRIPOS>ATOM
      1 PB           1.9500    -0.6930    -3.6340 p5         1 AP2       1.343500
      2 O1B          2.4270     0.4320    -4.4830 o          1 AP2      -0.953833
      3 O2B          3.0520    -1.6900    -3.5310 o          1 AP2      -0.953833
      4 O3B          0.7400    -1.3470    -4.2020 o          1 AP2      -0.953833
      5 C3A          1.7250    -0.1060    -1.9770 c3         1 AP2      -0.744400
      6 PA           0.1460     0.7280    -1.9470 p5         1 AP2       1.420400
      7 O1A          0.1460     1.5590    -0.7060 o          1 AP2      -0.847000
      8 O2A         -0.1640     1.5490    -3.1550 o          1 AP2      -0.847000
      9 O5          -0.8420    -0.5370    -1.7780 os         1 AP2      -0.581400
     10 C5          -2.2190    -0.3100    -1.4420 c3         1 AP2       0.240600
     11 C4          -2.5410    -0.7460     0.0290 c5         1 AP2       0.136300
     12 O4          -1.3390    -0.8590     0.8500 os         1 AP2      -0.390000
     13 C3          -3.4990     0.2420     0.7880 c5         1 AP2       0.093300
     14 O3          -4.3750    -0.4240     1.7070 oh         1 AP2      -0.717000
     15 C2          -2.4580     1.1000     1.5590 c5         1 AP2       0.058300
     16 O2          -3.0620     1.8560     2.6300 oh         1 AP2      -0.708000
     17 C1          -1.5100    -0.0520     2.0300 c5         1 AP2       0.333300
     18 N9          -0.2040     0.2990     2.5850 na         1 AP2      -0.289300
     19 C8           0.4900     1.4960     2.3650 cc         1 AP2       0.489700
     20 N7           1.6340     1.5370     3.0850 nd         1 AP2      -0.557100
     21 C7           1.6350     0.3120     3.7590 ca         1 AP2      -0.056600
     22 C6           2.5850    -0.2180     4.6600 ca         1 AP2       0.418900
     23 N6           3.7170     0.4440     5.0230 nv         1 AP2      -1.077900
     24 N1           2.4170    -1.4310     5.2110 nb         1 AP2      -0.337000
     25 C10          1.2920    -2.0980     4.8530 ca         1 AP2       0.122900
     26 N3           0.3300    -1.6660     4.0020 nb         1 AP2      -0.206000
     27 C9           0.5310    -0.4470     3.4620 ca         1 AP2       0.092500
     28 H3A1         2.5210     0.5920    -1.7070 hc         1 AP2       0.025200
     29 H3A2         1.7160    -0.9350    -1.2650 hc         1 AP2       0.025200
     30 H5'1        -2.8700    -0.8730    -2.1240 h1         1 AP2      -0.002300
     31 H5'2        -2.4750     0.7510    -1.5640 h1         1 AP2      -0.002300
     32 H4          -3.0010    -1.7410    -0.0300 h1         1 AP2       0.086700
     33 H3          -4.0850     0.8560     0.0900 h1         1 AP2       0.035700
     34 HO3         -4.4390     0.1910     2.4780 ho         1 AP2       0.489000
     35 H2          -1.9330     1.7690     0.8640 h1         1 AP2       0.078700
     36 HO2         -3.4280     2.6860     2.2420 ho         1 AP2       0.485000
     37 H1          -2.0140    -0.6470     2.8020 h2         1 AP2       0.083700
     38 H8           0.1220     2.2780     1.7090 h5         1 AP2       0.180800
     39 HN61         4.4720    -0.0940     5.4410 hn         1 AP2       0.488500
     40 HN62         3.9820     1.2550     4.4690 hn         1 AP2       0.488500
     41 H6           1.1460    -3.0810     5.2950 h5         1 AP2       0.007100
@<TRIPOS>BOND
     1     1     2 1   
     2     1     3 1   
     3     1     4 1   
     4     1     5 1   
     5     5     6 1   
     6     5    28 1   
     7     5    29 1   
     8     6     7 1   
     9     6     8 1   
    10     6     9 1   
    11     9    10 1   
    12    10    11 1   
    13    10    30 1   
    14    10    31 1   
    15    11    12 1   
    16    11    13 1   
    17    11    32 1   
    18    12    17 1   
    19    13    14 1   
    20    13    15 1   
    21    13    33 1   
    22    14    34 1   
    23    15    16 1   
    24    15    17 1   
    25    15    35 1   
    26    16    36 1   
    27    17    18 1   
    28    17    37 1   
    29    18    19 1   
    30    18    27 1   
    31    19    20 2   
    32    19    38 1   
    33    20    21 1   
    34    21    22 ar  
    35    21    27 ar  
    36    22    23 1   
    37    22    24 ar  
    38    23    39 1   
    39    23    40 1   
    40    24    25 ar  
    41    25    26 ar  
    42    25    41 1   
    43    26    27 ar  
@<TRIPOS>SUBSTRUCTURE
     1 AP2         1 TEMP              0 ****  ****    0 ROOT
