@<TRIPOS>MOLECULE
AP3
   35    35     1     0     0
SMALL
No Charge or Current Charge


@<TRIPOS>ATOM
      1 C1          -1.5200    -0.2910     1.9960 c          1 AP3       0.746000
      2 O1          -2.0500     0.6640     2.5470 o          1 AP3      -0.739500
      3 OXT         -2.0460    -1.3940     1.9300 o          1 AP3      -0.739500
      4 C2          -0.1340    -0.1130     1.3650 c3         1 AP3      -0.211700
      5 C21          0.9760     0.0930     2.4490 c3         1 AP3       0.204000
      6 O22          2.2330    -0.0590     1.7950 oh         1 AP3      -0.700000
      7 C3          -0.2320     0.9930     0.2820 c5         1 AP3       0.433500
      8 S4           1.3370     1.1890    -0.6820 ss         1 AP3      -0.718000
      9 C5           0.8080     0.0090    -2.0260 c5         1 AP3       0.126000
     10 C51          1.7650    -1.2080    -2.0160 c3         1 AP3      -0.058600
     11 C52          0.9730     0.7680    -3.3720 c3         1 AP3      -0.058600
     12 C6          -0.6660    -0.3870    -1.6540 c5         1 AP3       0.036500
     13 C8          -1.4920    -0.7340    -2.9620 c          1 AP3       0.735000
     14 O81         -2.1960     0.1240    -3.4850 o          1 AP3      -0.739500
     15 O82         -1.4940    -1.8890    -3.3680 o          1 AP3      -0.739500
     16 N7          -1.1930     0.7480    -0.8040 n7         1 AP3      -0.801400
     17 C9           0.9190    -1.0040     3.5460 c3         1 AP3      -0.083100
     18 C10          0.9760     1.4990     3.1100 c3         1 AP3      -0.083100
     19 H2           0.1120    -1.0670     0.8890 hc         1 AP3       0.050700
     20 HOM          2.0930     0.3400     0.8970 ho         1 AP3       0.448000
     21 H3          -0.4660     1.9450     0.7790 h2         1 AP3       0.066700
     22 H511         2.8030    -0.9030    -2.1970 hc         1 AP3       0.026533
     23 H512         1.7380    -1.7280    -1.0510 hc         1 AP3       0.026533
     24 H513         1.4920    -1.9340    -2.7910 hc         1 AP3       0.026533
     25 H521         2.0020     1.1250    -3.5010 hc         1 AP3       0.026533
     26 H522         0.7440     0.1270    -4.2310 hc         1 AP3       0.026533
     27 H523         0.3150     1.6440    -3.4200 hc         1 AP3       0.026533
     28 H6          -0.6700    -1.3150    -1.0690 h1         1 AP3       0.071700
     29 HN7         -1.2050     1.5890    -1.3870 hn         1 AP3       0.435000
     30 H91          1.7820    -0.9300     4.2190 hc         1 AP3       0.027200
     31 H92          0.0150    -0.9060     4.1590 hc         1 AP3       0.027200
     32 H93          0.9230    -2.0060     3.1010 hc         1 AP3       0.027200
     33 H101         0.0560     1.6770     3.6770 hc         1 AP3       0.027200
     34 H102         1.8130     1.5930     3.8110 hc         1 AP3       0.027200
     35 H103         1.0820     2.2960     2.3650 hc         1 AP3       0.027200
@<TRIPOS>BOND
     1     1     2 1   
     2     1     3 1   
     3     1     4 1   
     4     4     5 1   
     5     4     7 1   
     6     4    19 1   
     7     5     6 1   
     8     5    17 1   
     9     5    18 1   
    10     6    20 1   
    11     7     8 1   
    12     7    16 1   
    13     7    21 1   
    14     8     9 1   
    15     9    10 1   
    16     9    11 1   
    17     9    12 1   
    18    10    22 1   
    19    10    23 1   
    20    10    24 1   
    21    11    25 1   
    22    11    26 1   
    23    11    27 1   
    24    12    13 1   
    25    12    16 1   
    26    12    28 1   
    27    13    14 1   
    28    13    15 1   
    29    16    29 1   
    30    17    30 1   
    31    17    31 1   
    32    17    32 1   
    33    18    33 1   
    34    18    34 1   
    35    18    35 1   
@<TRIPOS>SUBSTRUCTURE
     1 AP3         1 TEMP              0 ****  ****    0 ROOT
