@<TRIPOS>MOLECULE
AP3
   35    35     1     0     0
SMALL
abcg2


@<TRIPOS>ATOM
      1 C1          -1.5010    -0.1580     1.9580 c          1 AP3       0.746000
      2 O1          -2.0600     0.9460     2.1210 o          1 AP3      -0.739500
      3 OXT         -2.0120    -1.2770     2.1620 o          1 AP3      -0.739500
      4 C2          -0.0340    -0.1370     1.4670 c3         1 AP3      -0.211700
      5 C21          0.9430     0.2130     2.6180 c3         1 AP3       0.204000
      6 O22          2.2920     0.2020     2.1550 oh         1 AP3      -0.700000
      7 C3           0.0550     0.7630     0.2320 c5         1 AP3       0.433500
      8 S4           1.6870     0.5620    -0.6630 ss         1 AP3      -0.718000
      9 C5           0.9160    -0.1100    -2.1870 c5         1 AP3       0.126000
     10 C51          1.7330    -1.2950    -2.6840 c3         1 AP3      -0.058600
     11 C52          0.8650     0.9790    -3.2560 c3         1 AP3      -0.058600
     12 C6          -0.4930    -0.5360    -1.6840 c5         1 AP3       0.036500
     13 C8          -1.4820    -0.7190    -2.8530 c          1 AP3       0.735000
     14 O81         -2.2740     0.2170    -3.0770 o          1 AP3      -0.739500
     15 O82         -1.3810    -1.7830    -3.4940 o          1 AP3      -0.739500
     16 N7          -0.9620     0.4370    -0.7310 n7         1 AP3      -0.801400
     17 C9           0.8060    -0.8250     3.7360 c3         1 AP3      -0.083100
     18 C10          0.7420     1.6110     3.1930 c3         1 AP3      -0.083100
     19 H2           0.2190    -1.1560     1.1470 hc         1 AP3       0.050700
     20 HOM          2.4080    -0.5540     1.5690 ho         1 AP3       0.448000
     21 H3          -0.0530     1.8080     0.5200 h2         1 AP3       0.066700
     22 H511         2.7520    -0.9990    -2.9360 hc         1 AP3       0.026533
     23 H512         1.7870    -2.0810    -1.9300 hc         1 AP3       0.026533
     24 H513         1.2740    -1.7130    -3.5800 hc         1 AP3       0.026533
     25 H521         1.8670     1.3570    -3.4590 hc         1 AP3       0.026533
     26 H522         0.4660     0.5900    -4.1960 hc         1 AP3       0.026533
     27 H523         0.2490     1.8250    -2.9520 hc         1 AP3       0.026533
     28 H6          -0.3730    -1.4990    -1.1750 h1         1 AP3       0.071700
     29 HN7         -1.2810     1.2580    -1.2270 hn         1 AP3       0.435000
     30 H91          1.5530    -0.6400     4.5090 hc         1 AP3       0.027200
     31 H92         -0.1760    -0.7970     4.2070 hc         1 AP3       0.027200
     32 H93          0.9560    -1.8360     3.3520 hc         1 AP3       0.027200
     33 H101        -0.2380     1.7160     3.6480 hc         1 AP3       0.027200
     34 H102         1.4950     1.8030     3.9610 hc         1 AP3       0.027200
     35 H103         0.8440     2.3840     2.4300 hc         1 AP3       0.027200
@<TRIPOS>BOND
     1     1     2 1   
     2     1     3 1   
     3     1     4 1   
     4     4     5 1   
     5     4     7 1   
     6     4    19 1   
     7     5     6 1   
     8     5    17 1   
     9     5    18 1   
    10     6    20 1   
    11     7     8 1   
    12     7    16 1   
    13     7    21 1   
    14     8     9 1   
    15     9    10 1   
    16     9    11 1   
    17     9    12 1   
    18    10    22 1   
    19    10    23 1   
    20    10    24 1   
    21    11    25 1   
    22    11    26 1   
    23    11    27 1   
    24    12    13 1   
    25    12    16 1   
    26    12    28 1   
    27    13    14 1   
    28    13    15 1   
    29    16    29 1   
    30    17    30 1   
    31    17    31 1   
    32    17    32 1   
    33    18    33 1   
    34    18    34 1   
    35    18    35 1   
@<TRIPOS>SUBSTRUCTURE
     1 AP3         1 TEMP              0 ****  ****    0 ROOT
