@<TRIPOS>MOLECULE
AP4
   25    27     1     0     0
SMALL
No Charge or Current Charge


@<TRIPOS>ATOM
      1 N1           1.2400    -0.0140     2.2130 nc         1 AP4      -0.770300
      2 C2           0.1370    -0.0220     2.8890 cd         1 AP4       0.759800
      3 N2           0.2890     0.0530     4.1950 nv         1 AP4      -1.051200
      4 N3          -1.1000    -0.1070     2.4150 ns         1 AP4      -0.446400
      5 C4          -1.3810    -0.1940     1.1000 c          1 AP4       0.613200
      6 O4          -2.5340    -0.3350     0.7310 o          1 AP4      -0.530000
      7 N5          -0.1310    -0.1760    -1.1990 n          1 AP4      -0.286000
      8 C6           1.1310    -0.5220    -1.8800 c5         1 AP4       0.038700
      9 C7           2.3610     0.1410    -1.2040 c6         1 AP4       0.208800
     10 N8           2.2550    -0.0620     0.2510 nu         1 AP4      -0.821200
     11 C10          1.0560    -0.0850     0.8720 cc         1 AP4       0.458600
     12 C9          -0.1740    -0.1430     0.2260 cd         1 AP4      -0.285600
     13 C11          0.8010    -0.0470    -3.3190 c5         1 AP4       0.154600
     14 O12         -0.6450     0.0130    -3.3800 os         1 AP4      -0.420100
     15 C13         -1.1530     0.1310    -2.1190 c          1 AP4       0.686100
     16 O14         -2.3010     0.4700    -1.8820 o          1 AP4      -0.497000
     17 HN21         1.2370     0.2880     4.4590 hn         1 AP4       0.505000
     18 HN22        -0.4300     0.5420     4.7120 hn         1 AP4       0.505000
     19 HN3         -1.8810    -0.1550     3.0470 hn         1 AP4       0.327500
     20 H6           1.2730    -1.6110    -1.8590 h1         1 AP4       0.092700
     21 H71          3.2900    -0.2930    -1.6020 h1         1 AP4       0.055200
     22 H72          2.3700     1.2180    -1.4280 h1         1 AP4       0.055200
     23 HN8          3.0270     0.1730     0.8710 hn         1 AP4       0.510000
     24 H111         1.1940     0.9630    -3.5030 h1         1 AP4       0.068700
     25 H112         1.1880    -0.7200    -4.0950 h1         1 AP4       0.068700
@<TRIPOS>BOND
     1     1     2 2   
     2     1    11 1   
     3     2     3 1   
     4     2     4 1   
     5     3    17 1   
     6     3    18 1   
     7     4     5 1   
     8     4    19 1   
     9     5     6 2   
    10     5    12 1   
    11     7     8 1   
    12     7    12 1   
    13     7    15 1   
    14     8     9 1   
    15     8    13 1   
    16     8    20 1   
    17     9    10 1   
    18     9    21 1   
    19     9    22 1   
    20    10    11 1   
    21    10    23 1   
    22    11    12 2   
    23    13    14 1   
    24    13    24 1   
    25    13    25 1   
    26    14    15 1   
    27    15    16 2   
@<TRIPOS>SUBSTRUCTURE
     1 AP4         1 TEMP              0 ****  ****    0 ROOT
