@<TRIPOS>MOLECULE
AP4
   25    27     1     0     0
SMALL
bcc


@<TRIPOS>ATOM
      1 N1           1.2040     0.2100     2.2000 nc         1 AP4      -0.770300
      2 C2           0.1320    -0.0200     2.9150 cd         1 AP4       0.759800
      3 N2           0.2100     0.0060     4.2510 nv         1 AP4      -0.940800
      4 N3          -1.0660    -0.3210     2.3630 ns         1 AP4      -0.513400
      5 C4          -1.2810    -0.4380     0.9850 c          1 AP4       0.755700
      6 O4          -2.3800    -0.7910     0.5720 o          1 AP4      -0.605500
      7 N5          -0.1390    -0.2090    -1.1810 n          1 AP4      -0.353000
      8 C6           1.1080    -0.5870    -1.8170 c5         1 AP4       0.038700
      9 C7           2.2160     0.3270    -1.3020 c6         1 AP4       0.208800
     10 N8           2.1910     0.3370     0.1410 nu         1 AP4      -0.766000
     11 C10          1.0690     0.1590     0.8580 cc         1 AP4       0.458600
     12 C9          -0.1390    -0.1040     0.2220 cd         1 AP4      -0.285600
     13 C11          0.7450    -0.3670    -3.2800 c5         1 AP4       0.131400
     14 O12         -0.3440     0.5590    -3.2370 os         1 AP4      -0.396900
     15 C13         -0.8460     0.6260    -1.9940 c          1 AP4       0.828600
     16 O14         -1.7780     1.3320    -1.7100 o          1 AP4      -0.572500
     17 HN21         1.0570     0.3480     4.6710 hn         1 AP4       0.449800
     18 HN22        -0.6160     0.0030     4.8240 hn         1 AP4       0.449800
     19 HN3         -1.8540    -0.5320     2.9610 hn         1 AP4       0.327500
     20 H6           1.3490    -1.6300    -1.6100 h1         1 AP4       0.092700
     21 H71          3.1890    -0.0330    -1.6360 h1         1 AP4       0.055200
     22 H72          2.0840     1.3370    -1.7100 h1         1 AP4       0.055200
     23 HN8          3.0420     0.5230     0.6460 hn         1 AP4       0.454800
     24 H111         1.5540     0.0630    -3.8690 h1         1 AP4       0.068700
     25 H112         0.4120    -1.2920    -3.7520 h1         1 AP4       0.068700
@<TRIPOS>BOND
     1     1     2 2   
     2     1    11 1   
     3     2     3 1   
     4     2     4 1   
     5     3    17 1   
     6     3    18 1   
     7     4     5 1   
     8     4    19 1   
     9     5     6 2   
    10     5    12 1   
    11     7     8 1   
    12     7    12 1   
    13     7    15 1   
    14     8     9 1   
    15     8    13 1   
    16     8    20 1   
    17     9    10 1   
    18     9    21 1   
    19     9    22 1   
    20    10    11 1   
    21    10    23 1   
    22    11    12 2   
    23    13    14 1   
    24    13    24 1   
    25    13    25 1   
    26    14    15 1   
    27    15    16 2   
@<TRIPOS>SUBSTRUCTURE
     1 AP4         1 TEMP              0 ****  ****    0 ROOT
