@<TRIPOS>MOLECULE
AP5
   81    86     1     0     0
SMALL
bcc


@<TRIPOS>ATOM
      1 PA          21.4860     7.4960    18.3350 p5         1 AP5       1.484300
      2 O1A         22.5010     7.4590    17.2380 o          1 AP5      -0.867500
      3 O2A         21.2990     8.7010    19.2020 o          1 AP5      -0.867500
      4 O3A         20.0430     6.9830    17.7450 os         1 AP5      -0.721300
      5 PB          18.6700     7.8360    17.4390 p5         1 AP5       1.569300
      6 O1B         17.7870     6.9030    16.6770 o          1 AP5      -0.888000
      7 O2B         19.0100     9.1870    16.8980 o          1 AP5      -0.888000
      8 O3B         18.1590     7.9770    19.0000 os         1 AP5      -0.717300
      9 PG          16.6380     8.2480    19.5450 p5         1 AP5       1.553800
     10 O1G         16.7670     8.5660    21.0000 o          1 AP5      -0.897000
     11 O2G         15.9150     9.1480    18.5970 o          1 AP5      -0.897000
     12 O3G         15.9310     6.7640    19.3670 os         1 AP5      -0.717300
     13 PD          16.2000     5.3950    20.1990 p5         1 AP5       1.569300
     14 O1D         15.5750     4.3050    19.3570 o          1 AP5      -0.888000
     15 O2D         17.6200     5.2620    20.6410 o          1 AP5      -0.888000
     16 O3D         15.1920     5.6660    21.4560 os         1 AP5      -0.721300
     17 PE          15.1910     5.1970    23.0330 p5         1 AP5       1.484300
     18 O1E         16.5090     5.5060    23.6650 o          1 AP5      -0.867500
     19 O2E         13.8940     5.7000    23.5770 o          1 AP5      -0.867500
     20 O5F         21.8150     6.1830    19.2730 os         1 AP5      -0.622200
     21 C5F         21.0720     5.9150    20.4410 c3         1 AP5       0.197400
     22 C4F         21.9270     5.9860    21.6860 c5         1 AP5       0.098100
     23 O4F         22.9980     5.0450    21.6020 os         1 AP5      -0.409600
     24 C3F         22.5720     7.3440    21.9550 c5         1 AP5       0.150100
     25 O3F         22.6550     7.5150    23.3510 oh         1 AP5      -0.636300
     26 C2F         23.9560     7.1710    21.3390 c5         1 AP5       0.066600
     27 O2F         24.8820     8.0470    21.9120 oh         1 AP5      -0.579300
     28 C1F         24.2310     5.6970    21.6530 c5         1 AP5       0.223300
     29 N9A         25.1480     5.0520    20.7520 na         1 AP5      -0.237000
     30 C8A         25.0740     4.9680    19.3850 cc         1 AP5       0.495200
     31 N7A         26.0350     4.2660    18.8610 nd         1 AP5      -0.607100
     32 C5A         26.7840     3.8550    19.9350 ca         1 AP5      -0.206700
     33 C6A         27.9500     3.0750    20.0490 ca         1 AP5       0.749200
     34 N6A         28.5820     2.5640    18.9910 nv         1 AP5      -0.983000
     35 N1A         28.4360     2.8470    21.2750 nb         1 AP5      -0.871500
     36 C2A         27.8030     3.3620    22.3260 ca         1 AP5       0.650900
     37 N3A         26.7140     4.1080    22.3460 nb         1 AP5      -0.719500
     38 C4A         26.2430     4.3240    21.1200 ca         1 AP5       0.418300
     39 O5J         15.0080     3.5670    22.9020 os         1 AP5      -0.622200
     40 C5J         16.1060     2.6950    22.7490 c3         1 AP5       0.197400
     41 C4J         15.6780     1.3910    22.1170 c5         1 AP5       0.098100
     42 O4J         14.7940     0.6710    22.9800 os         1 AP5      -0.409600
     43 C3J         14.9160     1.5060    20.7940 c5         1 AP5       0.150100
     44 O3J         15.7270     1.7580    19.7000 oh         1 AP5      -0.636300
     45 C2J         14.2030     0.1560    20.7510 c5         1 AP5       0.066600
     46 O2J         15.1160    -0.8210    20.3300 oh         1 AP5      -0.579300
     47 C1J         13.8510    -0.0360    22.2370 c5         1 AP5       0.223300
     48 N9B         12.5170     0.4450    22.5640 na         1 AP5      -0.237000
     49 C8B         12.1280     1.6780    23.0110 cc         1 AP5       0.495200
     50 N7B         10.8420     1.7700    23.2060 nd         1 AP5      -0.607100
     51 C5B         10.3540     0.5350    22.8670 ca         1 AP5      -0.206700
     52 C6B          9.0610    -0.0230    22.8630 ca         1 AP5       0.749200
     53 N6B          7.9770     0.6600    23.2360 nv         1 AP5      -0.983000
     54 N1B          8.9290    -1.2960    22.4760 nb         1 AP5      -0.871500
     55 C2B         10.0110    -1.9810    22.1150 ca         1 AP5       0.650900
     56 N3B         11.2670    -1.5720    22.0760 nb         1 AP5      -0.719500
     57 C4B         11.3820    -0.3030    22.4670 ca         1 AP5       0.418300
     58 H51A        20.2350     6.6040    20.5760 h1         1 AP5       0.076700
     59 H52A        20.6430     4.9100    20.3640 h1         1 AP5       0.076700
     60 H4F         21.2860     5.7160    22.5340 h1         1 AP5       0.073200
     61 H3F         22.0150     8.1560    21.4780 h1         1 AP5       0.117700
     62 HO3A        23.1840     8.3000    23.5290 ho         1 AP5       0.460000
     63 H2F         23.8760     7.3190    20.2570 h1         1 AP5       0.074700
     64 HO2A        25.6640     8.0890    21.3530 ho         1 AP5       0.371000
     65 H1F         24.6870     5.6160    22.6460 h2         1 AP5       0.056200
     66 H8A         24.2850     5.4500    18.8260 h5         1 AP5       0.155300
     67 H61A        29.4050     2.0000    19.1150 hn         1 AP5       0.433300
     68 H62A        28.2320     2.7020    18.0600 hn         1 AP5       0.433300
     69 H2A         28.2470     3.1400    23.2910 h5         1 AP5       0.009600
     70 H51B        16.8860     3.1210    22.1120 h1         1 AP5       0.076700
     71 H52B        16.5690     2.4920    23.7210 h1         1 AP5       0.076700
     72 H4J         16.5890     0.8000    21.9550 h1         1 AP5       0.073200
     73 H3J         14.1450     2.2800    20.9110 h1         1 AP5       0.117700
     74 HO3B        15.7240     2.7430    19.5560 ho         1 AP5       0.460000
     75 H2J         13.3020     0.1690    20.1250 h1         1 AP5       0.074700
     76 HO2B        14.6600    -1.6690    20.2890 ho         1 AP5       0.371000
     77 H1J         13.8580    -1.0970    22.5090 h2         1 AP5       0.056200
     78 H8B         12.8380     2.4740    23.1820 h5         1 AP5       0.155300
     79 H61B         7.0670     0.2340    23.1860 hn         1 AP5       0.433300
     80 H62B         8.0370     1.6280    23.4970 hn         1 AP5       0.433300
     81 H2B          9.8330    -3.0080    21.8140 h5         1 AP5       0.009600
@<TRIPOS>BOND
     1     1     2 1   
     2     1     3 1   
     3     1     4 1   
     4     1    20 1   
     5     4     5 1   
     6     5     6 1   
     7     5     7 1   
     8     5     8 1   
     9     8     9 1   
    10     9    10 1   
    11     9    11 1   
    12     9    12 1   
    13    12    13 1   
    14    13    14 1   
    15    13    15 1   
    16    13    16 1   
    17    16    17 1   
    18    17    18 1   
    19    17    19 1   
    20    17    39 1   
    21    20    21 1   
    22    21    22 1   
    23    21    58 1   
    24    21    59 1   
    25    22    23 1   
    26    22    24 1   
    27    22    60 1   
    28    23    28 1   
    29    24    25 1   
    30    24    26 1   
    31    24    61 1   
    32    25    62 1   
    33    26    27 1   
    34    26    28 1   
    35    26    63 1   
    36    27    64 1   
    37    28    29 1   
    38    28    65 1   
    39    29    30 1   
    40    29    38 1   
    41    30    31 2   
    42    30    66 1   
    43    31    32 1   
    44    32    33 ar  
    45    32    38 ar  
    46    33    34 1   
    47    33    35 ar  
    48    34    67 1   
    49    34    68 1   
    50    35    36 ar  
    51    36    37 ar  
    52    36    69 1   
    53    37    38 ar  
    54    39    40 1   
    55    40    41 1   
    56    40    70 1   
    57    40    71 1   
    58    41    42 1   
    59    41    43 1   
    60    41    72 1   
    61    42    47 1   
    62    43    44 1   
    63    43    45 1   
    64    43    73 1   
    65    44    74 1   
    66    45    46 1   
    67    45    47 1   
    68    45    75 1   
    69    46    76 1   
    70    47    48 1   
    71    47    77 1   
    72    48    49 1   
    73    48    57 1   
    74    49    50 2   
    75    49    78 1   
    76    50    51 1   
    77    51    52 ar  
    78    51    57 ar  
    79    52    53 1   
    80    52    54 ar  
    81    53    79 1   
    82    53    80 1   
    83    54    55 ar  
    84    55    56 ar  
    85    55    81 1   
    86    56    57 ar  
@<TRIPOS>SUBSTRUCTURE
     1 AP5         1 TEMP              0 ****  ****    0 ROOT
