@<TRIPOS>MOLECULE
AP5
   81    86     1     0     0
SMALL
No Charge or Current Charge


@<TRIPOS>ATOM
      1 PA          20.6810     7.3940    19.4790 p5         1 AP5       1.484300
      2 O1A         20.5490     7.5390    18.0010 o          1 AP5      -0.867500
      3 O2A         20.3880     8.6530    20.2210 o          1 AP5      -0.867500
      4 O3A         19.9950     6.1230    20.0950 os         1 AP5      -0.721300
      5 PB          18.5340     5.8890    19.5590 p5         1 AP5       1.569300
      6 O1B         18.5730     5.1430    18.2640 o          1 AP5      -0.888000
      7 O2B         17.7210     7.1420    19.5180 o          1 AP5      -0.888000
      8 O3B         18.1460     4.9350    20.7470 os         1 AP5      -0.717300
      9 PG          16.5930     4.7320    20.8940 p5         1 AP5       1.553800
     10 O1G         15.9030     5.8060    21.6690 o          1 AP5      -0.897000
     11 O2G         15.8880     4.4750    19.6020 o          1 AP5      -0.897000
     12 O3G         16.6570     3.3480    21.6390 os         1 AP5      -0.717300
     13 PD          16.7890     3.3650    23.2030 p5         1 AP5       1.569300
     14 O1D         17.3590     2.0320    23.5700 o          1 AP5      -0.888000
     15 O2D         17.5900     4.4990    23.7530 o          1 AP5      -0.888000
     16 O3D         15.2520     3.3940    23.5080 os         1 AP5      -0.721300
     17 PE          14.8870     3.4440    25.0350 p5         1 AP5       1.484300
     18 O1E         15.9810     3.2090    26.0210 o          1 AP5      -0.867500
     19 O2E         14.1390     4.6970    25.3510 o          1 AP5      -0.867500
     20 O5F         22.1900     6.9260    19.7970 os         1 AP5      -0.645400
     21 C5F         22.6940     7.0110    21.1430 c3         1 AP5       0.220600
     22 C4F         23.6540     8.2370    21.3300 c5         1 AP5       0.121300
     23 O4F         25.0240     7.7800    21.4350 os         1 AP5      -0.456000
     24 C3F         23.7430     9.2930    20.1780 c5         1 AP5       0.173300
     25 O3F         24.3510    10.5230    20.5940 oh         1 AP5      -0.758500
     26 C2F         24.7210     8.5990    19.1710 c5         1 AP5       0.089800
     27 O2F         25.5310     9.6010    18.5080 oh         1 AP5      -0.701500
     28 C1F         25.5590     7.6290    20.1010 c5         1 AP5       0.275800
     29 N9A         25.6460     6.2020    19.7600 na         1 AP5      -0.266300
     30 C8A         24.8070     5.4810    18.8940 cc         1 AP5       0.495200
     31 N7A         25.2060     4.1950    18.7810 nd         1 AP5      -0.607100
     32 C5A         26.3270     4.1290    19.6130 ca         1 AP5      -0.076100
     33 C6A         27.1690     3.0330    19.9040 ca         1 AP5       0.420900
     34 N6A         26.9870     1.7960    19.3690 nv         1 AP5      -1.093400
     35 N1A         28.2070     3.1570    20.7460 nb         1 AP5      -0.345500
     36 C2A         28.3910     4.3880    21.2840 ca         1 AP5       0.124900
     37 N3A         27.6390     5.4920    21.0590 nb         1 AP5      -0.193500
     38 C4A         26.6010     5.3330    20.2130 ca         1 AP5       0.090000
     39 O5J         13.8670     2.1940    25.0470 os         1 AP5      -0.645400
     40 C5J         14.3570     0.8400    25.1880 c3         1 AP5       0.220600
     41 C4J         14.0550    -0.0280    23.9260 c5         1 AP5       0.121300
     42 O4J         12.7180     0.2000    23.4100 os         1 AP5      -0.456000
     43 C3J         14.9480     0.2180    22.6800 c5         1 AP5       0.173300
     44 O3J         16.3310    -0.1580    22.8440 oh         1 AP5      -0.758500
     45 C2J         14.1560    -0.6400    21.6320 c5         1 AP5       0.089800
     46 O2J         14.3630    -2.0650    21.7870 oh         1 AP5      -0.701500
     47 C1J         12.6820    -0.2200    22.0220 c5         1 AP5       0.275800
     48 N9B         12.0290     0.8300    21.2340 na         1 AP5      -0.266300
     49 C8B         12.6500     1.9260    20.6140 cc         1 AP5       0.495200
     50 N7B         11.7560     2.6660    19.9200 nd         1 AP5      -0.607100
     51 C5B         10.5460     1.9990    20.1350 ca         1 AP5      -0.076100
     52 C6B          9.2520     2.3060    19.6570 ca         1 AP5       0.420900
     53 N6B          8.9900     3.3770    18.8620 nv         1 AP5      -1.093400
     54 N1B          8.1980     1.5320    19.9610 nb         1 AP5      -0.345500
     55 C2B          8.4550     0.4590    20.7490 ca         1 AP5       0.124900
     56 N3B          9.6590     0.0920    21.2520 nb         1 AP5      -0.193500
     57 C4B         10.6980     0.8880    20.9260 ca         1 AP5       0.090000
     58 H51A        21.8700     7.1130    21.8640 h1         1 AP5       0.076700
     59 H52A        23.2270     6.0900    21.4140 h1         1 AP5       0.076700
     60 H4F         23.3800     8.7200    22.2770 h1         1 AP5       0.073200
     61 H3F         22.7640     9.4850    19.7160 h1         1 AP5       0.117700
     62 HO3A        25.0490    10.6200    19.8880 ho         1 AP5       0.559000
     63 H2F         24.1390     8.0390    18.4280 h1         1 AP5       0.074700
     64 HO2A        25.9870     9.1640    17.7500 ho         1 AP5       0.470000
     65 H1F         26.6030     7.9670    20.1150 h2         1 AP5       0.056200
     66 H8A         23.9580     5.9220    18.3850 h5         1 AP5       0.155300
     67 H61A        27.4300     1.0070    19.8310 hn         1 AP5       0.488500
     68 H62A        26.0970     1.6190    18.9080 hn         1 AP5       0.488500
     69 H2A         29.2310     4.5010    21.9670 h5         1 AP5       0.009600
     70 H51B        15.4380     0.8080    25.3810 h1         1 AP5       0.076700
     71 H52B        13.8700     0.3620    26.0480 h1         1 AP5       0.076700
     72 H4J         14.1310    -1.0810    24.2320 h1         1 AP5       0.073200
     73 H3J         14.8800     1.2730    22.3910 h1         1 AP5       0.117700
     74 HO3B        16.8130     0.6890    23.1490 ho         1 AP5       0.559000
     75 H2J         14.4030    -0.3290    20.6070 h1         1 AP5       0.074700
     76 HO2B        14.0780    -2.4990    20.9500 ho         1 AP5       0.470000
     77 H1J         12.0270    -1.0940    21.9280 h2         1 AP5       0.056200
     78 H8B         13.7140     2.1260    20.6920 h5         1 AP5       0.155300
     79 H61B         8.1260     3.3740    18.3270 hn         1 AP5       0.488500
     80 H62B         9.7890     3.8500    18.4450 hn         1 AP5       0.488500
     81 H2B          7.6070    -0.1740    21.0020 h5         1 AP5       0.009600
@<TRIPOS>BOND
     1     1     2 1   
     2     1     3 1   
     3     1     4 1   
     4     1    20 1   
     5     4     5 1   
     6     5     6 1   
     7     5     7 1   
     8     5     8 1   
     9     8     9 1   
    10     9    10 1   
    11     9    11 1   
    12     9    12 1   
    13    12    13 1   
    14    13    14 1   
    15    13    15 1   
    16    13    16 1   
    17    16    17 1   
    18    17    18 1   
    19    17    19 1   
    20    17    39 1   
    21    20    21 1   
    22    21    22 1   
    23    21    58 1   
    24    21    59 1   
    25    22    23 1   
    26    22    24 1   
    27    22    60 1   
    28    23    28 1   
    29    24    25 1   
    30    24    26 1   
    31    24    61 1   
    32    25    62 1   
    33    26    27 1   
    34    26    28 1   
    35    26    63 1   
    36    27    64 1   
    37    28    29 1   
    38    28    65 1   
    39    29    30 1   
    40    29    38 1   
    41    30    31 2   
    42    30    66 1   
    43    31    32 1   
    44    32    33 ar  
    45    32    38 ar  
    46    33    34 1   
    47    33    35 ar  
    48    34    67 1   
    49    34    68 1   
    50    35    36 ar  
    51    36    37 ar  
    52    36    69 1   
    53    37    38 ar  
    54    39    40 1   
    55    40    41 1   
    56    40    70 1   
    57    40    71 1   
    58    41    42 1   
    59    41    43 1   
    60    41    72 1   
    61    42    47 1   
    62    43    44 1   
    63    43    45 1   
    64    43    73 1   
    65    44    74 1   
    66    45    46 1   
    67    45    47 1   
    68    45    75 1   
    69    46    76 1   
    70    47    48 1   
    71    47    77 1   
    72    48    49 1   
    73    48    57 1   
    74    49    50 2   
    75    49    78 1   
    76    50    51 1   
    77    51    52 ar  
    78    51    57 ar  
    79    52    53 1   
    80    52    54 ar  
    81    53    79 1   
    82    53    80 1   
    83    54    55 ar  
    84    55    56 ar  
    85    55    81 1   
    86    56    57 ar  
@<TRIPOS>SUBSTRUCTURE
     1 AP5         1 TEMP              0 ****  ****    0 ROOT
