@<TRIPOS>MOLECULE
AP6
   32    34     1     0     0
SMALL
No Charge or Current Charge


@<TRIPOS>ATOM
      1 N1          -1.2040     0.0240     3.0560 nb         1 AP6      -0.320000
      2 C2          -0.1330     0.0880     3.8540 ca         1 AP6       0.402900
      3 N2          -0.3890     0.2300     5.1730 nv         1 AP6      -1.036900
      4 N3           1.1590     0.0360     3.5120 nb         1 AP6      -0.321000
      5 C4           1.4160    -0.1050     2.2040 ca         1 AP6       0.380900
      6 N4           2.7480    -0.1340     1.8920 nv         1 AP6      -1.041900
      7 C9           0.3840    -0.1950     1.2310 ca         1 AP6      -0.026000
      8 C10         -0.9410    -0.1150     1.7500 ca         1 AP6       0.394900
      9 N5           0.6050    -0.3590    -0.1750 nu         1 AP6      -0.878200
     10 C6          -0.5310    -0.6870    -1.0810 c6         1 AP6       0.220800
     11 C7          -1.8700    -0.0170    -0.5710 c6         1 AP6       0.221800
     12 N8          -2.0450    -0.1960     0.8990 nu         1 AP6      -0.927100
     13 C11         -0.1980    -0.3120    -2.5320 ca         1 AP6      -0.095300
     14 C12         -0.1650    -1.3090    -3.5290 ca         1 AP6      -0.095000
     15 C16          0.0750     1.0260    -2.8870 ca         1 AP6      -0.095000
     16 C13          0.1320    -0.9710    -4.8620 ca         1 AP6      -0.114500
     17 C15          0.3720     1.3620    -4.2200 ca         1 AP6      -0.114500
     18 C14          0.4000     0.3640    -5.2080 ca         1 AP6      -0.105000
     19 HN21         0.3760     0.4950     5.7890 hn         1 AP6       0.474000
     20 HN22        -1.3280     0.4870     5.4640 hn         1 AP6       0.474000
     21 HN41         3.4070     0.1290     2.6200 hn         1 AP6       0.467500
     22 HN42         3.0200     0.0860     0.9390 hn         1 AP6       0.467500
     23 HN5          1.5510    -0.5810    -0.4890 hn         1 AP6       0.434000
     24 H6          -0.6960    -1.7740    -1.0360 h1         1 AP6       0.044700
     25 H71         -1.8230     1.0580    -0.7990 h1         1 AP6       0.052200
     26 H72         -2.7270    -0.4260    -1.1260 h1         1 AP6       0.052200
     27 HN8         -2.9500     0.0060     1.3260 hn         1 AP6       0.500000
     28 H12         -0.3720    -2.3460    -3.2740 ha         1 AP6       0.120000
     29 H16          0.0620     1.8050    -2.1280 ha         1 AP6       0.120000
     30 H13          0.1540    -1.7460    -5.6260 ha         1 AP6       0.113500
     31 H15          0.5820     2.3960    -4.4860 ha         1 AP6       0.113500
     32 H14          0.6300     0.6240    -6.2390 ha         1 AP6       0.113000
@<TRIPOS>BOND
     1     1     2 ar  
     2     1     8 ar  
     3     2     3 1   
     4     2     4 ar  
     5     3    19 1   
     6     3    20 1   
     7     4     5 ar  
     8     5     6 1   
     9     5     7 ar  
    10     6    21 1   
    11     6    22 1   
    12     7     8 ar  
    13     7     9 1   
    14     8    12 1   
    15     9    10 1   
    16     9    23 1   
    17    10    11 1   
    18    10    13 1   
    19    10    24 1   
    20    11    12 1   
    21    11    25 1   
    22    11    26 1   
    23    12    27 1   
    24    13    14 ar  
    25    13    15 ar  
    26    14    16 ar  
    27    14    28 1   
    28    15    17 ar  
    29    15    29 1   
    30    16    18 ar  
    31    16    30 1   
    32    17    18 ar  
    33    17    31 1   
    34    18    32 1   
@<TRIPOS>SUBSTRUCTURE
     1 AP6         1 TEMP              0 ****  ****    0 ROOT
