@<TRIPOS>MOLECULE
AP6
   32    34     1     0     0
SMALL
bcc


@<TRIPOS>ATOM
      1 N1          -1.2210    -0.1600     2.9850 nb         1 AP6      -0.846000
      2 C2          -0.1980    -0.0400     3.8220 ca         1 AP6       0.928900
      3 N2          -0.4810    -0.1110     5.1570 nv         1 AP6      -0.926500
      4 N3           1.0790     0.1140     3.4880 nb         1 AP6      -0.847000
      5 C4           1.3630     0.1090     2.1820 ca         1 AP6       0.709200
      6 N4           2.6750     0.2450     1.8260 nv         1 AP6      -0.931500
      7 C9           0.3830    -0.0710     1.2080 ca         1 AP6      -0.295000
      8 C10         -0.9240    -0.1730     1.6830 ca         1 AP6       0.723200
      9 N5           0.6860    -0.0890    -0.1730 nu         1 AP6      -0.684600
     10 C6          -0.3700    -0.6140    -1.0220 c6         1 AP6       0.220800
     11 C7          -1.7000     0.0080    -0.5920 c6         1 AP6       0.221800
     12 N8          -1.9420    -0.2970     0.7960 nu         1 AP6      -0.871900
     13 C11         -0.0990    -0.3100    -2.4740 ca         1 AP6      -0.095300
     14 C12         -0.4860    -1.2210    -3.4520 ca         1 AP6      -0.113000
     15 C16          0.4880     0.8900    -2.8650 ca         1 AP6      -0.113000
     16 C13         -0.2960    -0.9410    -4.7990 ca         1 AP6      -0.132500
     17 C15          0.6800     1.1730    -4.2110 ca         1 AP6      -0.132500
     18 C14          0.2880     0.2600    -5.1820 ca         1 AP6      -0.123000
     19 HN21         0.2110     0.2740     5.7780 hn         1 AP6       0.418800
     20 HN22        -1.4310     0.0910     5.4200 hn         1 AP6       0.418800
     21 HN41         3.2820     0.5730     2.5600 hn         1 AP6       0.412300
     22 HN42         2.8610     0.6860     0.9380 hn         1 AP6       0.412300
     23 HN5          1.5440    -0.5960    -0.3520 hn         1 AP6       0.378800
     24 H6          -0.4750    -1.7030    -0.9100 h1         1 AP6       0.044700
     25 H71         -1.6720     1.0890    -0.7800 h1         1 AP6       0.052200
     26 H72         -2.5060    -0.4120    -1.1930 h1         1 AP6       0.052200
     27 HN8         -2.8780    -0.1990     1.1550 hn         1 AP6       0.444800
     28 H12         -0.9390    -2.1610    -3.1570 ha         1 AP6       0.138000
     29 H16          0.8010     1.6000    -2.1110 ha         1 AP6       0.138000
     30 H13         -0.6000    -1.6610    -5.5480 ha         1 AP6       0.131500
     31 H15          1.1400     2.1080    -4.5030 ha         1 AP6       0.131500
     32 H14          0.4390     0.4820    -6.2300 ha         1 AP6       0.131000
@<TRIPOS>BOND
     1     1     2 ar  
     2     1     8 ar  
     3     2     3 1   
     4     2     4 ar  
     5     3    19 1   
     6     3    20 1   
     7     4     5 ar  
     8     5     6 1   
     9     5     7 ar  
    10     6    21 1   
    11     6    22 1   
    12     7     8 ar  
    13     7     9 1   
    14     8    12 1   
    15     9    10 1   
    16     9    23 1   
    17    10    11 1   
    18    10    13 1   
    19    10    24 1   
    20    11    12 1   
    21    11    25 1   
    22    11    26 1   
    23    12    27 1   
    24    13    14 ar  
    25    13    15 ar  
    26    14    16 ar  
    27    14    28 1   
    28    15    17 ar  
    29    15    29 1   
    30    16    18 ar  
    31    16    30 1   
    32    17    18 ar  
    33    17    31 1   
    34    18    32 1   
@<TRIPOS>SUBSTRUCTURE
     1 AP6         1 TEMP              0 ****  ****    0 ROOT
