@<TRIPOS>MOLECULE
AP8
  177   177     1     0     0
SMALL
No Charge or Current Charge


@<TRIPOS>ATOM
      1 O13         -3.2080    -1.3200    11.3320 o          1 AP8      -0.492000
      2 C54         -4.2900    -1.8180    11.0430 c          1 AP8       0.572100
      3 C55         -5.6550    -1.1140    11.3210 c3         1 AP8       0.143500
      4 C56         -6.6110    -2.0890    12.0590 c3         1 AP8       0.164600
      5 O14         -6.0010    -2.4750    13.3070 os         1 AP8      -0.458000
      6 C57         -6.7720    -3.4060    14.0830 c3         1 AP8       0.148900
      7 N3          -6.2950    -0.3990    10.1490 n3         1 AP8      -0.736600
      8 C59         -6.7510    -1.2950     9.0580 c3         1 AP8       0.161100
      9 C58         -5.4650     0.7180     9.6380 c3         1 AP8       0.161100
     10 O3          -4.4370    -3.0320    10.4090 os         1 AP8      -0.447100
     11 C7          -3.2640    -3.8140    10.1090 c3         1 AP8       0.181300
     12 C6          -3.6500    -4.7700     8.9500 c3         1 AP8      -0.051200
     13 C5          -3.8690    -4.0300     7.6480 c2         1 AP8      -0.169200
     14 C4          -2.8950    -3.7200     6.7680 ce         1 AP8      -0.214000
     15 C3          -3.1190    -2.9570     5.5380 ce         1 AP8      -0.095000
     16 C2          -2.1170    -2.5740     4.6990 cf         1 AP8      -0.278200
     17 C1          -2.3100    -1.7570     3.4810 c          1 AP8       0.604300
     18 O1          -3.3940    -1.3420     3.0990 o          1 AP8      -0.501000
     19 O2          -1.1080    -1.5040     2.8730 os         1 AP8      -0.457100
     20 C8          -2.7740    -4.5330    11.4140 c3         1 AP8      -0.116700
     21 C35         -3.8630    -5.4840    11.9950 c3         1 AP8      -0.093100
     22 C9          -1.3970    -5.2640    11.2380 c3         1 AP8       0.182300
     23 O4          -0.9790    -5.7880    12.5060 oh         1 AP8      -0.657000
     24 C10         -0.2280    -4.4110    10.6290 c3         1 AP8      -0.053700
     25 C36          0.9930    -5.3070    10.2900 c3         1 AP8      -0.086100
     26 C11          0.1820    -3.1920    11.5180 c3         1 AP8      -0.065400
     27 C12          1.0570    -2.0990    10.8430 c3         1 AP8      -0.069400
     28 C13          0.2730    -1.0700     9.9890 c3         1 AP8       0.199500
     29 O5          -0.1510    -1.7020     8.7670 os         1 AP8      -0.459000
     30 C53         -1.0860    -0.9380     7.9850 c3         1 AP8       0.140900
     31 C14          1.1330     0.1430     9.6320 c2         1 AP8      -0.157400
     32 C37          0.6730     1.4070    10.3450 c3         1 AP8      -0.053900
     33 C15          2.1710     0.0710     8.7730 c2         1 AP8      -0.201200
     34 C16          3.1100     1.1920     8.3610 c3         1 AP8      -0.044200
     35 C17          2.5990     2.0110     7.1440 c3         1 AP8      -0.048700
     36 C38          3.4210     3.3170     6.9990 c3         1 AP8      -0.082100
     37 C18          2.5690     1.1450     5.8440 c3         1 AP8      -0.068400
     38 C19          2.0230     1.8410     4.5680 c3         1 AP8       0.205500
     39 O6           3.0590     2.6960     4.0470 os         1 AP8      -0.452000
     40 C52          2.6490     3.6180     3.0210 c3         1 AP8       0.144900
     41 C20          1.6780     0.8440     3.4770 c2         1 AP8      -0.234200
     42 C21          0.5960     0.8960     2.6810 c2         1 AP8      -0.212200
     43 C22          0.3010    -0.0640     1.5400 c3         1 AP8      -0.046200
     44 C23         -1.0930    -0.7360     1.6510 c3         1 AP8       0.174300
     45 C24         -1.4790    -1.6760     0.4560 c3         1 AP8      -0.120700
     46 C39         -1.8120    -0.8320    -0.8040 c3         1 AP8      -0.090100
     47 C25         -0.4270    -2.8030     0.1490 c3         1 AP8       0.188300
     48 O7          -0.0570    -3.4520     1.3680 oh         1 AP8      -0.671000
     49 C26         -0.8640    -3.8850    -0.8980 c3         1 AP8      -0.051700
     50 C40          0.3610    -4.6990    -1.3930 c3         1 AP8      -0.085100
     51 C27         -2.0040    -4.8190    -0.3840 c3         1 AP8      -0.066400
     52 C28         -2.7470    -5.6160    -1.4880 c3         1 AP8      -0.108400
     53 C29         -3.8010    -6.6340    -0.9490 c3         1 AP8       0.187300
     54 O8          -4.5990    -6.0300     0.1020 os         1 AP8      -0.423100
     55 C47         -5.3850    -4.9120    -0.1050 c          1 AP8       0.595100
     56 C48         -6.1340    -4.4680     1.1990 c3         1 AP8       0.126500
     57 C49         -5.1220    -4.3790     2.3740 c3         1 AP8      -0.095100
     58 N2          -7.3750    -5.2580     1.5430 n3         1 AP8      -0.701600
     59 C51         -8.3070    -5.3950     0.3970 c3         1 AP8       0.149600
     60 C50         -8.0860    -4.7790     2.7550 c3         1 AP8       0.149600
     61 O12         -5.4970    -4.3190    -1.1720 o          1 AP8      -0.501000
     62 C30         -4.7370    -7.2910    -2.0240 c3         1 AP8      -0.087700
     63 C41         -5.7550    -8.2770    -1.3830 c3         1 AP8      -0.081100
     64 C31         -4.0000    -7.9120    -3.2640 c3         1 AP8       0.182300
     65 O9          -5.0070    -8.0130    -4.2980 os         1 AP8      -0.459100
     66 C45         -4.6800    -7.7240    -5.6000 c          1 AP8       0.600100
     67 O11         -3.6020    -7.2860    -5.9770 o          1 AP8      -0.495000
     68 C46         -5.8470    -7.9990    -6.5350 c3         1 AP8      -0.158100
     69 C32         -3.3500    -9.3350    -3.1040 c3         1 AP8      -0.027500
     70 C42         -2.2880    -9.4490    -1.9880 c3         1 AP8      -0.087100
     71 C33         -2.7340    -9.8100    -4.4110 c2         1 AP8      -0.270200
     72 C34         -3.2010   -10.8310    -5.1500 c2         1 AP8      -0.071400
     73 N1          -2.6880   -11.2850    -6.3910 n          1 AP8      -0.349000
     74 C44         -3.0530   -12.6250    -6.9050 c3         1 AP8       0.086300
     75 C43         -1.8380   -10.4810    -7.1890 c          1 AP8       0.593900
     76 O10         -1.3660   -10.8660    -8.2560 o          1 AP8      -0.585100
     77 H55         -5.4070    -0.3510    12.0700 h1         1 AP8       0.096700
     78 H561        -7.5660    -1.5810    12.2440 h1         1 AP8       0.038700
     79 H562        -6.8090    -2.9700    11.4340 h1         1 AP8       0.038700
     80 H573        -7.7490    -2.9810    14.3450 h1         1 AP8       0.030367
     81 H572        -6.2460    -3.6540    15.0140 h1         1 AP8       0.030367
     82 H571        -6.9360    -4.3370    13.5250 h1         1 AP8       0.030367
     83 H593        -7.4340    -2.0680     9.4340 h1         1 AP8       0.036533
     84 H592        -5.8990    -1.7910     8.5740 h1         1 AP8       0.036533
     85 H591        -7.2890    -0.7240     8.2900 h1         1 AP8       0.036533
     86 H583        -6.0080     1.2850     8.8710 h1         1 AP8       0.036533
     87 H582        -4.5330     0.3450     9.1910 h1         1 AP8       0.036533
     88 H581        -5.2040     1.4120    10.4480 h1         1 AP8       0.036533
     89 H7          -2.4750    -3.1480     9.7370 h1         1 AP8       0.082700
     90 H62         -4.5550    -5.3270     9.2200 hc         1 AP8       0.062200
     91 H61         -2.8600    -5.5170     8.8100 hc         1 AP8       0.062200
     92 H5          -4.9030    -3.7320     7.4660 ha         1 AP8       0.175000
     93 H4          -1.8640    -4.0170     6.9750 ha         1 AP8       0.187000
     94 H3          -4.1470    -2.6610     5.3120 ha         1 AP8       0.185000
     95 H2          -1.0900    -2.8550     4.9250 ha         1 AP8       0.204000
     96 H8          -2.6280    -3.7580    12.1730 hc         1 AP8       0.085700
     97 H353        -3.6030    -5.8140    13.0080 hc         1 AP8       0.038033
     98 H352        -4.8340    -4.9810    12.0630 hc         1 AP8       0.038033
     99 H351        -3.9860    -6.3760    11.3690 hc         1 AP8       0.038033
    100 H9          -1.5660    -6.1070    10.5540 h1         1 AP8       0.020700
    101 HO4         -1.6670    -6.4260    12.7890 ho         1 AP8       0.439000
    102 H10         -0.5720    -4.0330     9.6630 hc         1 AP8       0.058700
    103 H363         1.7400    -4.7570     9.7060 hc         1 AP8       0.034700
    104 H362         1.4770    -5.6790    11.2010 hc         1 AP8       0.034700
    105 H361         0.6820    -6.1720     9.6910 hc         1 AP8       0.034700
    106 H111         0.7250    -3.5720    12.3920 hc         1 AP8       0.052200
    107 H112        -0.7080    -2.6970    11.9190 hc         1 AP8       0.052200
    108 H121         1.5560    -1.5420    11.6450 hc         1 AP8       0.048700
    109 H122         1.8590    -2.5490    10.2480 hc         1 AP8       0.048700
    110 H13         -0.6020    -0.7450    10.5680 h1         1 AP8       0.047700
    111 H533        -0.6740     0.0420     7.7130 h1         1 AP8       0.029367
    112 H532        -2.0220    -0.7830     8.5380 h1         1 AP8       0.029367
    113 H531        -1.3210    -1.4650     7.0550 h1         1 AP8       0.029367
    114 H373         1.2440     2.2950    10.0560 hc         1 AP8       0.040033
    115 H372         0.7640     1.2980    11.4330 hc         1 AP8       0.040033
    116 H371        -0.3790     1.6200    10.1200 hc         1 AP8       0.040033
    117 H15          2.4130    -0.8860     8.3090 ha         1 AP8       0.177000
    118 H161         3.2720     1.8660     9.2100 hc         1 AP8       0.045700
    119 H162         4.1000     0.7800     8.1300 hc         1 AP8       0.045700
    120 H17          1.5660     2.3110     7.3640 hc         1 AP8       0.041700
    121 H383         2.9580     3.9970     6.2750 hc         1 AP8       0.034367
    122 H382         3.4730     3.8530     7.9540 hc         1 AP8       0.034367
    123 H381         4.4450     3.1000     6.6710 hc         1 AP8       0.034367
    124 H181         1.9370     0.2690     6.0340 hc         1 AP8       0.053200
    125 H182         3.5740     0.7570     5.6380 hc         1 AP8       0.053200
    126 H19          1.1300     2.4220     4.8370 h1         1 AP8       0.035700
    127 H523         1.8280     4.2550     3.3750 h1         1 AP8       0.027700
    128 H522         2.3150     3.0870     2.1200 h1         1 AP8       0.027700
    129 H521         3.4870     4.2680     2.7380 h1         1 AP8       0.027700
    130 H20          2.4250     0.0600     3.3430 ha         1 AP8       0.180000
    131 H21         -0.1410     1.6920     2.8040 ha         1 AP8       0.167000
    132 H221         0.3530     0.4870     0.5930 hc         1 AP8       0.061200
    133 H222         1.0800    -0.8340     1.4880 hc         1 AP8       0.061200
    134 H23         -1.8320     0.0750     1.7120 h1         1 AP8       0.069700
    135 H24         -2.4190    -2.1560     0.7420 hc         1 AP8       0.073700
    136 H393        -2.3450    -1.4290    -1.5530 hc         1 AP8       0.041367
    137 H392        -0.9020    -0.4330    -1.2670 hc         1 AP8       0.041367
    138 H391        -2.4630     0.0120    -0.5470 hc         1 AP8       0.041367
    139 H25          0.4570    -2.2970    -0.2610 h1         1 AP8       0.027700
    140 HO7         -0.2960    -2.8100     2.0800 ho         1 AP8       0.458000
    141 H26         -1.2430    -3.3570    -1.7800 hc         1 AP8       0.048700
    142 H403         0.7640    -5.3310    -0.5920 hc         1 AP8       0.036033
    143 H402         0.0990    -5.3450    -2.2380 hc         1 AP8       0.036033
    144 H401         1.1600    -4.0280    -1.7310 hc         1 AP8       0.036033
    145 H271        -1.5930    -5.5220     0.3510 hc         1 AP8       0.049200
    146 H272        -2.7420    -4.2180     0.1520 hc         1 AP8       0.049200
    147 H281        -2.0050    -6.1760    -2.0660 hc         1 AP8       0.058200
    148 H282        -3.2170    -4.9190    -2.1920 hc         1 AP8       0.058200
    149 H29         -3.2250    -7.4360    -0.4780 h1         1 AP8       0.074700
    150 H48         -6.4430    -3.4340     0.9910 h1         1 AP8       0.052700
    151 H493        -4.8520    -5.3780     2.7360 hc         1 AP8       0.051367
    152 H492        -4.2050    -3.8740     2.0520 hc         1 AP8       0.051367
    153 H491        -5.5300    -3.8030     3.2120 hc         1 AP8       0.051367
    154 H513        -7.8170    -5.8730    -0.4610 h1         1 AP8       0.032533
    155 H512        -8.6800    -4.4120     0.0770 h1         1 AP8       0.032533
    156 H511        -9.1700    -6.0160     0.6700 h1         1 AP8       0.032533
    157 H503        -8.9910    -5.3740     2.9340 h1         1 AP8       0.032533
    158 H502        -8.3840    -3.7280     2.6450 h1         1 AP8       0.032533
    159 H501        -7.4570    -4.8710     3.6500 h1         1 AP8       0.032533
    160 H30         -5.3350    -6.4770    -2.4460 hc         1 AP8       0.082700
    161 H413        -6.4110    -8.7170    -2.1440 hc         1 AP8       0.039367
    162 H412        -5.2410    -9.0920    -0.8600 hc         1 AP8       0.039367
    163 H411        -6.3960    -7.7660    -0.6560 hc         1 AP8       0.039367
    164 H31         -3.2180    -7.2090    -3.5730 h1         1 AP8       0.075700
    165 H46         -6.7290    -7.4610    -6.1700 hc         1 AP8       0.070033
    166 H462        -6.1490    -9.0460    -6.4190 hc         1 AP8       0.070033
    167 H461        -5.6190    -7.7530    -7.5780 hc         1 AP8       0.070033
    168 H32         -4.1550   -10.0320    -2.8400 hc         1 AP8       0.061700
    169 H423        -2.7520    -9.4330    -0.9960 hc         1 AP8       0.041367
    170 H422        -1.7520   -10.4030    -2.0690 hc         1 AP8       0.041367
    171 H421        -1.5510    -8.6400    -2.0560 hc         1 AP8       0.041367
    172 H33         -1.8560    -9.2360    -4.7100 ha         1 AP8       0.186000
    173 H34         -4.0730   -11.4010    -4.8220 h4         1 AP8       0.186000
    174 H443        -3.6520   -13.1700    -6.1640 h1         1 AP8       0.045033
    175 H442        -2.1440   -13.2040    -7.1150 h1         1 AP8       0.045033
    176 H441        -3.6370   -12.5210    -7.8280 h1         1 AP8       0.045033
    177 H43         -1.6500    -9.4750    -6.7770 h5         1 AP8       0.032200
@<TRIPOS>BOND
     1     1     2 2   
     2     2     3 1   
     3     2    10 1   
     4     3     4 1   
     5     3     7 1   
     6     3    77 1   
     7     4     5 1   
     8     4    78 1   
     9     4    79 1   
    10     5     6 1   
    11     6    80 1   
    12     6    81 1   
    13     6    82 1   
    14     7     8 1   
    15     7     9 1   
    16     8    83 1   
    17     8    84 1   
    18     8    85 1   
    19     9    86 1   
    20     9    87 1   
    21     9    88 1   
    22    10    11 1   
    23    11    12 1   
    24    11    20 1   
    25    11    89 1   
    26    12    13 1   
    27    12    90 1   
    28    12    91 1   
    29    13    14 2   
    30    13    92 1   
    31    14    15 1   
    32    14    93 1   
    33    15    16 2   
    34    15    94 1   
    35    16    17 1   
    36    16    95 1   
    37    17    18 2   
    38    17    19 1   
    39    19    44 1   
    40    20    21 1   
    41    20    22 1   
    42    20    96 1   
    43    21    97 1   
    44    21    98 1   
    45    21    99 1   
    46    22    23 1   
    47    22    24 1   
    48    22   100 1   
    49    23   101 1   
    50    24    25 1   
    51    24    26 1   
    52    24   102 1   
    53    25   103 1   
    54    25   104 1   
    55    25   105 1   
    56    26    27 1   
    57    26   106 1   
    58    26   107 1   
    59    27    28 1   
    60    27   108 1   
    61    27   109 1   
    62    28    29 1   
    63    28    31 1   
    64    28   110 1   
    65    29    30 1   
    66    30   111 1   
    67    30   112 1   
    68    30   113 1   
    69    31    32 1   
    70    31    33 2   
    71    32   114 1   
    72    32   115 1   
    73    32   116 1   
    74    33    34 1   
    75    33   117 1   
    76    34    35 1   
    77    34   118 1   
    78    34   119 1   
    79    35    36 1   
    80    35    37 1   
    81    35   120 1   
    82    36   121 1   
    83    36   122 1   
    84    36   123 1   
    85    37    38 1   
    86    37   124 1   
    87    37   125 1   
    88    38    39 1   
    89    38    41 1   
    90    38   126 1   
    91    39    40 1   
    92    40   127 1   
    93    40   128 1   
    94    40   129 1   
    95    41    42 2   
    96    41   130 1   
    97    42    43 1   
    98    42   131 1   
    99    43    44 1   
   100    43   132 1   
   101    43   133 1   
   102    44    45 1   
   103    44   134 1   
   104    45    46 1   
   105    45    47 1   
   106    45   135 1   
   107    46   136 1   
   108    46   137 1   
   109    46   138 1   
   110    47    48 1   
   111    47    49 1   
   112    47   139 1   
   113    48   140 1   
   114    49    50 1   
   115    49    51 1   
   116    49   141 1   
   117    50   142 1   
   118    50   143 1   
   119    50   144 1   
   120    51    52 1   
   121    51   145 1   
   122    51   146 1   
   123    52    53 1   
   124    52   147 1   
   125    52   148 1   
   126    53    54 1   
   127    53    62 1   
   128    53   149 1   
   129    54    55 1   
   130    55    56 1   
   131    55    61 2   
   132    56    57 1   
   133    56    58 1   
   134    56   150 1   
   135    57   151 1   
   136    57   152 1   
   137    57   153 1   
   138    58    59 1   
   139    58    60 1   
   140    59   154 1   
   141    59   155 1   
   142    59   156 1   
   143    60   157 1   
   144    60   158 1   
   145    60   159 1   
   146    62    63 1   
   147    62    64 1   
   148    62   160 1   
   149    63   161 1   
   150    63   162 1   
   151    63   163 1   
   152    64    65 1   
   153    64    69 1   
   154    64   164 1   
   155    65    66 1   
   156    66    67 2   
   157    66    68 1   
   158    68   165 1   
   159    68   166 1   
   160    68   167 1   
   161    69    70 1   
   162    69    71 1   
   163    69   168 1   
   164    70   169 1   
   165    70   170 1   
   166    70   171 1   
   167    71    72 2   
   168    71   172 1   
   169    72    73 1   
   170    72   173 1   
   171    73    74 1   
   172    73    75 1   
   173    74   174 1   
   174    74   175 1   
   175    74   176 1   
   176    75    76 2   
   177    75   177 1   
@<TRIPOS>SUBSTRUCTURE
     1 AP8         1 TEMP              0 ****  ****    0 ROOT
