@<TRIPOS>MOLECULE
AP8
  177   177     1     0     0
SMALL
abcg2


@<TRIPOS>ATOM
      1 O13         -3.5750    -1.4450    11.2680 o          1 AP8      -0.492000
      2 C54         -4.5070    -2.0250    10.7660 c          1 AP8       0.572100
      3 C55         -5.9100    -1.4230    10.6860 c3         1 AP8       0.143500
      4 C56         -7.0090    -2.4640    10.8420 c3         1 AP8       0.164600
      5 O14         -6.8050    -3.1040    12.0750 os         1 AP8      -0.458000
      6 C57         -7.7170    -4.1490    12.3020 c3         1 AP8       0.148900
      7 N3          -6.1040    -0.6090     9.4990 n3         1 AP8      -0.736600
      8 C59         -5.9490    -1.2720     8.2220 c3         1 AP8       0.161100
      9 C58         -5.3940     0.6520     9.5270 c3         1 AP8       0.161100
     10 O3          -4.4190    -3.2050    10.1720 os         1 AP8      -0.447100
     11 C7          -3.1430    -3.8680    10.0820 c3         1 AP8       0.181300
     12 C6          -3.2630    -4.8410     8.9090 c3         1 AP8      -0.051200
     13 C5          -3.5070    -4.1260     7.6230 c2         1 AP8      -0.169200
     14 C4          -2.5350    -3.8090     6.7610 ce         1 AP8      -0.214000
     15 C3          -2.7680    -3.0010     5.5900 ce         1 AP8      -0.095000
     16 C2          -1.7920    -2.5690     4.7800 cf         1 AP8      -0.278200
     17 C1          -2.0910    -1.6940     3.6430 c          1 AP8       0.604300
     18 O1          -3.1700    -1.2050     3.4010 o          1 AP8      -0.501000
     19 O2          -1.0040    -1.4930     2.8960 os         1 AP8      -0.457100
     20 C8          -2.7780    -4.5390    11.4120 c3         1 AP8      -0.116700
     21 C35         -3.8520    -5.5210    11.8790 c3         1 AP8      -0.093100
     22 C9          -1.3930    -5.2190    11.3480 c3         1 AP8       0.182300
     23 O4          -1.0020    -5.6400    12.6410 oh         1 AP8      -0.657000
     24 C10         -0.2600    -4.3520    10.7780 c3         1 AP8      -0.053700
     25 C36          1.0030    -5.1970    10.6130 c3         1 AP8      -0.086100
     26 C11          0.0090    -3.0920    11.6110 c3         1 AP8      -0.065400
     27 C12          0.9160    -2.0490    10.9440 c3         1 AP8      -0.069400
     28 C13          0.1880    -0.9780    10.1330 c3         1 AP8       0.199500
     29 O5          -0.4330    -1.5870     9.0280 os         1 AP8      -0.459000
     30 C53         -1.3350    -0.7450     8.3530 c3         1 AP8       0.140900
     31 C14          1.1550     0.1350     9.7660 c2         1 AP8      -0.157400
     32 C37          1.2310     1.2160    10.8030 c3         1 AP8      -0.053900
     33 C15          1.8630     0.0940     8.6360 c2         1 AP8      -0.201200
     34 C16          2.8830     1.0920     8.1810 c3         1 AP8      -0.044200
     35 C17          2.5090     1.8950     6.9210 c3         1 AP8      -0.048700
     36 C38          3.4910     3.0550     6.7710 c3         1 AP8      -0.082100
     37 C18          2.4330     0.9730     5.6970 c3         1 AP8      -0.068400
     38 C19          2.1700     1.6520     4.3560 c3         1 AP8       0.205500
     39 O6           3.3810     2.2490     3.9200 os         1 AP8      -0.452000
     40 C52          3.2050     3.2530     2.9550 c3         1 AP8       0.144900
     41 C20          1.7140     0.6700     3.3150 c2         1 AP8      -0.234200
     42 C21          0.6500     0.8290     2.5370 c2         1 AP8      -0.212200
     43 C22          0.2530    -0.1140     1.4450 c3         1 AP8      -0.046200
     44 C23         -1.1200    -0.7310     1.6810 c3         1 AP8       0.174300
     45 C24         -1.6500    -1.6150     0.5360 c3         1 AP8      -0.120700
     46 C39         -2.0840    -0.7100    -0.6160 c3         1 AP8      -0.090100
     47 C25         -0.6450    -2.6770     0.0520 c3         1 AP8       0.188300
     48 O7          -0.1360    -3.4900     1.0910 oh         1 AP8      -0.671000
     49 C26         -1.2120    -3.6330    -1.0090 c3         1 AP8      -0.051700
     50 C40         -0.0790    -4.4270    -1.6570 c3         1 AP8      -0.085100
     51 C27         -2.3010    -4.5480    -0.4350 c3         1 AP8      -0.066400
     52 C28         -3.0710    -5.3250    -1.4980 c3         1 AP8      -0.108400
     53 C29         -4.0250    -6.3640    -0.9120 c3         1 AP8       0.187300
     54 O8          -4.8460    -5.8260     0.1500 os         1 AP8      -0.423100
     55 C47         -5.6650    -4.8040    -0.0270 c          1 AP8       0.595100
     56 C48         -6.2380    -4.2910     1.2920 c3         1 AP8       0.126500
     57 C49         -5.1640    -3.4220     1.9450 c3         1 AP8      -0.095100
     58 N2          -6.6850    -5.3830     2.1370 n3         1 AP8      -0.701600
     59 C51         -7.8720    -6.0010     1.5830 c3         1 AP8       0.149600
     60 C50         -6.9230    -5.0050     3.5160 c3         1 AP8       0.149600
     61 O12         -5.8940    -4.2760    -1.0880 o          1 AP8      -0.501000
     62 C30         -4.8840    -7.1230    -1.9380 c3         1 AP8      -0.087700
     63 C41         -5.8200    -8.1250    -1.2640 c3         1 AP8      -0.081100
     64 C31         -4.0660    -7.7880    -3.0660 c3         1 AP8       0.182300
     65 O9          -5.0150    -8.0090    -4.1250 os         1 AP8      -0.459100
     66 C45         -4.7510    -7.6030    -5.3620 c          1 AP8       0.600100
     67 O11         -3.7810    -6.9550    -5.6710 o          1 AP8      -0.495000
     68 C46         -5.7960    -8.0800    -6.3250 c3         1 AP8      -0.158100
     69 C32         -3.4180    -9.1560    -2.7760 c3         1 AP8      -0.027500
     70 C42         -2.3530    -9.0960    -1.6820 c3         1 AP8      -0.087100
     71 C33         -2.7980    -9.6890    -4.0350 c2         1 AP8      -0.270200
     72 C34         -3.3340   -10.6820    -4.7380 c2         1 AP8      -0.071400
     73 N1          -2.8500   -11.1580    -5.9660 n          1 AP8      -0.349000
     74 C44         -2.8830   -12.5880    -6.2150 c3         1 AP8       0.086300
     75 C43         -2.3170   -10.3240    -6.8860 c          1 AP8       0.593900
     76 O10         -1.7780   -10.6880    -7.9140 o          1 AP8      -0.585100
     77 H55         -5.9890    -0.7450    11.5410 h1         1 AP8       0.096700
     78 H561        -7.9790    -1.9490    10.8140 h1         1 AP8       0.038700
     79 H562        -7.0040    -3.1930    10.0230 h1         1 AP8       0.038700
     80 H573        -8.7520    -3.7890    12.3290 h1         1 AP8       0.030367
     81 H572        -7.4830    -4.5970    13.2670 h1         1 AP8       0.030367
     82 H571        -7.6490    -4.9260    11.5320 h1         1 AP8       0.030367
     83 H593        -6.5220    -2.1970     8.1840 h1         1 AP8       0.036533
     84 H592        -4.9060    -1.5050     7.9630 h1         1 AP8       0.036533
     85 H591        -6.3380    -0.6210     7.4380 h1         1 AP8       0.036533
     86 H583        -5.7750     1.2950     8.7320 h1         1 AP8       0.036533
     87 H582        -4.3090     0.5590     9.3790 h1         1 AP8       0.036533
     88 H581        -5.5630     1.1600    10.4760 h1         1 AP8       0.036533
     89 H7          -2.3880    -3.1160     9.8440 h1         1 AP8       0.082700
     90 H62         -4.0610    -5.5620     9.0970 hc         1 AP8       0.062200
     91 H61         -2.3310    -5.4060     8.8390 hc         1 AP8       0.062200
     92 H5          -4.5250    -3.8140     7.4090 ha         1 AP8       0.175000
     93 H4          -1.5120    -4.1120     6.9660 ha         1 AP8       0.187000
     94 H3          -3.7940    -2.7070     5.3850 ha         1 AP8       0.185000
     95 H2          -0.7590    -2.8490     4.9540 ha         1 AP8       0.204000
     96 H8          -2.7060    -3.7420    12.1590 hc         1 AP8       0.085700
     97 H353        -3.6350    -5.8980    12.8790 hc         1 AP8       0.038033
     98 H352        -4.8280    -5.0390    11.9370 hc         1 AP8       0.038033
     99 H351        -3.9400    -6.3810    11.2130 hc         1 AP8       0.038033
    100 H9          -1.4760    -6.0970    10.6900 h1         1 AP8       0.020700
    101 HO4         -1.5010    -6.4280    12.8750 ho         1 AP8       0.439000
    102 H10         -0.5650    -4.0410     9.7750 hc         1 AP8       0.058700
    103 H363         1.7920    -4.6390    10.1100 hc         1 AP8       0.034700
    104 H362         1.3940    -5.5300    11.5750 hc         1 AP8       0.034700
    105 H361         0.8010    -6.0840    10.0090 hc         1 AP8       0.034700
    106 H111         0.4610    -3.3950    12.5590 hc         1 AP8       0.052200
    107 H112        -0.9330    -2.6030    11.8730 hc         1 AP8       0.052200
    108 H121         1.4820    -1.5290    11.7220 hc         1 AP8       0.048700
    109 H122         1.6670    -2.5210    10.3040 hc         1 AP8       0.048700
    110 H13         -0.5940    -0.5420    10.7780 h1         1 AP8       0.047700
    111 H533        -0.8290    -0.0140     7.7150 h1         1 AP8       0.029367
    112 H532        -1.9790    -0.1980     9.0520 h1         1 AP8       0.029367
    113 H531        -1.9690    -1.3700     7.7280 h1         1 AP8       0.029367
    114 H373         2.0700     1.8950    10.6680 hc         1 AP8       0.040033
    115 H372         1.3120     0.7910    11.8060 hc         1 AP8       0.040033
    116 H371         0.3150     1.8140    10.7960 hc         1 AP8       0.040033
    117 H15          1.6940    -0.7480     7.9700 ha         1 AP8       0.177000
    118 H161         3.0990     1.7990     8.9830 hc         1 AP8       0.045700
    119 H162         3.8270     0.5710     7.9770 hc         1 AP8       0.045700
    120 H17          1.5100     2.3200     7.0810 hc         1 AP8       0.041700
    121 H383         3.2090     3.7460     5.9790 hc         1 AP8       0.034367
    122 H382         3.5330     3.6270     7.7000 hc         1 AP8       0.034367
    123 H381         4.5000     2.6970     6.5570 hc         1 AP8       0.034367
    124 H181         1.6330     0.2460     5.8590 hc         1 AP8       0.053200
    125 H182         3.3580     0.3890     5.6140 hc         1 AP8       0.053200
    126 H19          1.3930     2.4240     4.4870 h1         1 AP8       0.035700
    127 H523         2.6090     4.0890     3.3410 h1         1 AP8       0.027700
    128 H522         2.7190     2.8860     2.0450 h1         1 AP8       0.027700
    129 H521         4.1910     3.6320     2.6860 h1         1 AP8       0.027700
    130 H20          2.3510    -0.2020     3.1780 ha         1 AP8       0.180000
    131 H21          0.0120     1.7000     2.6760 ha         1 AP8       0.167000
    132 H221         0.2150     0.4300     0.4960 hc         1 AP8       0.061200
    133 H222         1.0180    -0.8870     1.3300 hc         1 AP8       0.061200
    134 H23         -1.8440     0.0730     1.8410 h1         1 AP8       0.069700
    135 H24         -2.5470    -2.1100     0.9210 hc         1 AP8       0.073700
    136 H393        -2.6950    -1.2450    -1.3420 hc         1 AP8       0.041367
    137 H392        -1.2280    -0.2930    -1.1500 hc         1 AP8       0.041367
    138 H391        -2.6830     0.1250    -0.2490 hc         1 AP8       0.041367
    139 H25          0.1800    -2.1250    -0.4290 h1         1 AP8       0.027700
    140 HO7         -0.0000    -2.9670     1.8860 ho         1 AP8       0.458000
    141 H26         -1.6630    -3.0190    -1.7950 hc         1 AP8       0.048700
    142 H403         0.4040    -5.0970    -0.9450 hc         1 AP8       0.036033
    143 H402        -0.4360    -5.0310    -2.4920 hc         1 AP8       0.036033
    144 H401         0.6850    -3.7570    -2.0570 hc         1 AP8       0.036033
    145 H271        -1.8480    -5.2500     0.2700 hc         1 AP8       0.049200
    146 H272        -3.0040    -3.9470     0.1460 hc         1 AP8       0.049200
    147 H281        -2.3540    -5.8740    -2.1110 hc         1 AP8       0.058200
    148 H282        -3.5880    -4.6440    -2.1760 hc         1 AP8       0.058200
    149 H29         -3.4200    -7.0810    -0.3580 h1         1 AP8       0.074700
    150 H48         -7.0760    -3.6280     1.0170 h1         1 AP8       0.052700
    151 H493        -4.3370    -4.0240     2.3250 hc         1 AP8       0.051367
    152 H492        -4.7680    -2.7030     1.2280 hc         1 AP8       0.051367
    153 H491        -5.5790    -2.8430     2.7680 hc         1 AP8       0.051367
    154 H513        -7.6980    -6.3470     0.5640 h1         1 AP8       0.032533
    155 H512        -8.7380    -5.3220     1.5550 h1         1 AP8       0.032533
    156 H511        -8.1490    -6.8750     2.1740 h1         1 AP8       0.032533
    157 H503        -7.2890    -5.8750     4.0610 h1         1 AP8       0.032533
    158 H502        -7.6680    -4.2030     3.6340 h1         1 AP8       0.032533
    159 H501        -6.0040    -4.6870     4.0060 h1         1 AP8       0.032533
    160 H30         -5.4950    -6.3770    -2.4530 hc         1 AP8       0.082700
    161 H413        -6.3640    -8.7120    -2.0030 hc         1 AP8       0.039367
    162 H412        -5.2850    -8.8200    -0.6140 hc         1 AP8       0.039367
    163 H411        -6.5680    -7.6250    -0.6530 hc         1 AP8       0.039367
    164 H31         -3.2920    -7.1080    -3.4250 h1         1 AP8       0.075700
    165 H46         -6.7850    -8.1160    -5.8730 hc         1 AP8       0.070033
    166 H462        -5.5440    -9.0940    -6.6450 hc         1 AP8       0.070033
    167 H461        -5.8180    -7.4450    -7.2070 hc         1 AP8       0.070033
    168 H32         -4.2070    -9.8460    -2.4600 hc         1 AP8       0.061700
    169 H423        -2.7740    -8.9210    -0.6930 hc         1 AP8       0.041367
    170 H422        -1.8210   -10.0460    -1.6340 hc         1 AP8       0.041367
    171 H421        -1.6120    -8.3180    -1.8800 hc         1 AP8       0.041367
    172 H33         -1.8740    -9.2180    -4.3590 ha         1 AP8       0.186000
    173 H34         -4.2260   -11.1920    -4.3880 h4         1 AP8       0.186000
    174 H443        -3.6770   -13.0310    -5.6190 h1         1 AP8       0.045033
    175 H442        -1.9410   -13.0630    -5.9390 h1         1 AP8       0.045033
    176 H441        -3.0850   -12.7880    -7.2640 h1         1 AP8       0.045033
    177 H43         -2.4410    -9.2640    -6.6240 h5         1 AP8       0.032200
@<TRIPOS>BOND
     1     1     2 2   
     2     2     3 1   
     3     2    10 1   
     4     3     4 1   
     5     3     7 1   
     6     3    77 1   
     7     4     5 1   
     8     4    78 1   
     9     4    79 1   
    10     5     6 1   
    11     6    80 1   
    12     6    81 1   
    13     6    82 1   
    14     7     8 1   
    15     7     9 1   
    16     8    83 1   
    17     8    84 1   
    18     8    85 1   
    19     9    86 1   
    20     9    87 1   
    21     9    88 1   
    22    10    11 1   
    23    11    12 1   
    24    11    20 1   
    25    11    89 1   
    26    12    13 1   
    27    12    90 1   
    28    12    91 1   
    29    13    14 2   
    30    13    92 1   
    31    14    15 1   
    32    14    93 1   
    33    15    16 2   
    34    15    94 1   
    35    16    17 1   
    36    16    95 1   
    37    17    18 2   
    38    17    19 1   
    39    19    44 1   
    40    20    21 1   
    41    20    22 1   
    42    20    96 1   
    43    21    97 1   
    44    21    98 1   
    45    21    99 1   
    46    22    23 1   
    47    22    24 1   
    48    22   100 1   
    49    23   101 1   
    50    24    25 1   
    51    24    26 1   
    52    24   102 1   
    53    25   103 1   
    54    25   104 1   
    55    25   105 1   
    56    26    27 1   
    57    26   106 1   
    58    26   107 1   
    59    27    28 1   
    60    27   108 1   
    61    27   109 1   
    62    28    29 1   
    63    28    31 1   
    64    28   110 1   
    65    29    30 1   
    66    30   111 1   
    67    30   112 1   
    68    30   113 1   
    69    31    32 1   
    70    31    33 2   
    71    32   114 1   
    72    32   115 1   
    73    32   116 1   
    74    33    34 1   
    75    33   117 1   
    76    34    35 1   
    77    34   118 1   
    78    34   119 1   
    79    35    36 1   
    80    35    37 1   
    81    35   120 1   
    82    36   121 1   
    83    36   122 1   
    84    36   123 1   
    85    37    38 1   
    86    37   124 1   
    87    37   125 1   
    88    38    39 1   
    89    38    41 1   
    90    38   126 1   
    91    39    40 1   
    92    40   127 1   
    93    40   128 1   
    94    40   129 1   
    95    41    42 2   
    96    41   130 1   
    97    42    43 1   
    98    42   131 1   
    99    43    44 1   
   100    43   132 1   
   101    43   133 1   
   102    44    45 1   
   103    44   134 1   
   104    45    46 1   
   105    45    47 1   
   106    45   135 1   
   107    46   136 1   
   108    46   137 1   
   109    46   138 1   
   110    47    48 1   
   111    47    49 1   
   112    47   139 1   
   113    48   140 1   
   114    49    50 1   
   115    49    51 1   
   116    49   141 1   
   117    50   142 1   
   118    50   143 1   
   119    50   144 1   
   120    51    52 1   
   121    51   145 1   
   122    51   146 1   
   123    52    53 1   
   124    52   147 1   
   125    52   148 1   
   126    53    54 1   
   127    53    62 1   
   128    53   149 1   
   129    54    55 1   
   130    55    56 1   
   131    55    61 2   
   132    56    57 1   
   133    56    58 1   
   134    56   150 1   
   135    57   151 1   
   136    57   152 1   
   137    57   153 1   
   138    58    59 1   
   139    58    60 1   
   140    59   154 1   
   141    59   155 1   
   142    59   156 1   
   143    60   157 1   
   144    60   158 1   
   145    60   159 1   
   146    62    63 1   
   147    62    64 1   
   148    62   160 1   
   149    63   161 1   
   150    63   162 1   
   151    63   163 1   
   152    64    65 1   
   153    64    69 1   
   154    64   164 1   
   155    65    66 1   
   156    66    67 2   
   157    66    68 1   
   158    68   165 1   
   159    68   166 1   
   160    68   167 1   
   161    69    70 1   
   162    69    71 1   
   163    69   168 1   
   164    70   169 1   
   165    70   170 1   
   166    70   171 1   
   167    71    72 2   
   168    71   172 1   
   169    72    73 1   
   170    72   173 1   
   171    73    74 1   
   172    73    75 1   
   173    74   174 1   
   174    74   175 1   
   175    74   176 1   
   176    75    76 2   
   177    75   177 1   
@<TRIPOS>SUBSTRUCTURE
     1 AP8         1 TEMP              0 ****  ****    0 ROOT
