@<TRIPOS>MOLECULE
AP9
   54    56     1     0     0
SMALL
No Charge or Current Charge


@<TRIPOS>ATOM
      1 O1           0.2770     4.0010    -2.3160 oh         1 AP9      -0.664000
      2 C15         -0.6310     3.2140    -1.5130 c3         1 AP9       0.135600
      3 C12         -0.1970     3.1570    -0.0070 c3         1 AP9       0.256500
      4 C13         -0.1310     4.5540     0.7000 c3         1 AP9      -0.069700
      5 C14         -1.4540     5.3520     0.5740 c3         1 AP9      -0.087100
      6 C16          0.2620     4.4380     2.1980 c3         1 AP9      -0.087100
      7 N2           1.1090     2.4690     0.1080 nu         1 AP9      -0.916100
      8 C2           1.3390     1.1070     0.1020 ca         1 AP9       0.440900
      9 N3           2.6260     0.7470    -0.0500 nb         1 AP9      -0.291000
     10 C4           2.8650    -0.5770    -0.0520 ca         1 AP9       0.170500
     11 C5           1.8590    -1.4990     0.0860 ca         1 AP9      -0.142600
     12 N7           2.3230    -2.8140     0.0690 nc         1 AP9      -0.549100
     13 C8           3.6500    -2.6420    -0.0890 cd         1 AP9       0.396700
     14 N9           4.0290    -1.2910    -0.1710 na         1 AP9      -0.286300
     15 C9           5.3710    -0.7040    -0.3380 c3         1 AP9       0.092300
     16 C10          6.2800    -1.0310     0.8650 c3         1 AP9      -0.107100
     17 C11          6.0100    -1.1320    -1.6750 c3         1 AP9      -0.107100
     18 C6           0.5390    -1.0250     0.2270 ca         1 AP9       0.481900
     19 N1           0.2780     0.2910     0.2470 nb         1 AP9      -0.342000
     20 N6          -0.5030    -1.9270     0.3980 nu         1 AP9      -0.922900
     21 C1A         -1.8880    -1.8330     0.5070 ca         1 AP9       0.362000
     22 C2A         -2.6180    -0.7740    -0.0580 ca         1 AP9      -0.216000
     23 C3A         -4.0100    -0.7340     0.0680 ca         1 AP9       0.329000
     24 N10         -4.7160     0.2970    -0.4830 nv         1 AP9      -1.078000
     25 C4A         -4.6850    -1.7490     0.7500 ca         1 AP9      -0.211000
     26 C5A         -3.9620    -2.8130     1.3000 ca         1 AP9       0.193000
     27 Cl1         -4.8070    -4.0990     2.1510 cl         1 AP9      -0.211000
     28 C6A         -2.5680    -2.8590     1.1750 ca         1 AP9      -0.213000
     29 HO1         -0.0220     3.9220    -3.2490 ho         1 AP9       0.444000
     30 H151        -0.6750     2.1870    -1.8990 h1         1 AP9       0.033700
     31 H152        -1.6490     3.6180    -1.5830 h1         1 AP9       0.033700
     32 H12         -0.9620     2.5770     0.5290 h1         1 AP9       0.072700
     33 H13          0.6490     5.1450     0.2050 hc         1 AP9       0.062700
     34 H141        -2.2980     4.7780     0.9770 hc         1 AP9       0.035200
     35 H142        -1.3910     6.2980     1.1260 hc         1 AP9       0.035200
     36 H143        -1.6720     5.6020    -0.4710 hc         1 AP9       0.035200
     37 H161        -0.4620     3.8210     2.7440 hc         1 AP9       0.035200
     38 H162         1.2550     3.9880     2.3180 hc         1 AP9       0.035200
     39 H163         0.2920     5.4280     2.6690 hc         1 AP9       0.035200
     40 HN2          1.9230     3.0200    -0.1550 hn         1 AP9       0.509000
     41 H8           4.3860    -3.4340    -0.1520 h5         1 AP9       0.064800
     42 H9           5.2580     0.3880    -0.3700 h1         1 AP9       0.089700
     43 H101         7.2530    -0.5350     0.7590 hc         1 AP9       0.046700
     44 H102         5.8220    -0.6830     1.7980 hc         1 AP9       0.046700
     45 H103         6.4520    -2.1110     0.9460 hc         1 AP9       0.046700
     46 H111         5.3620    -0.8560    -2.5160 hc         1 AP9       0.046700
     47 H112         6.9780    -0.6360    -1.8160 hc         1 AP9       0.046700
     48 H113         6.1720    -2.2160    -1.7050 hc         1 AP9       0.046700
     49 HN6         -0.1350    -2.8670     0.5390 hn         1 AP9       0.521000
     50 H2A         -2.1140     0.0070    -0.6120 ha         1 AP9       0.152000
     51 H11         -4.2290     1.1010    -0.8720 hn         1 AP9       0.453500
     52 H12A        -5.7110     0.3950    -0.2890 hn         1 AP9       0.453500
     53 H4A         -5.7660    -1.7220     0.8490 ha         1 AP9       0.129000
     54 H6A         -2.0190    -3.6890     1.6070 ha         1 AP9       0.131000
@<TRIPOS>BOND
     1     1     2 1   
     2     1    29 1   
     3     2     3 1   
     4     2    30 1   
     5     2    31 1   
     6     3     4 1   
     7     3     7 1   
     8     3    32 1   
     9     4     5 1   
    10     4     6 1   
    11     4    33 1   
    12     5    34 1   
    13     5    35 1   
    14     5    36 1   
    15     6    37 1   
    16     6    38 1   
    17     6    39 1   
    18     7     8 1   
    19     7    40 1   
    20     8     9 ar  
    21     8    19 ar  
    22     9    10 ar  
    23    10    11 ar  
    24    10    14 1   
    25    11    12 1   
    26    11    18 ar  
    27    12    13 2   
    28    13    14 1   
    29    13    41 1   
    30    14    15 1   
    31    15    16 1   
    32    15    17 1   
    33    15    42 1   
    34    16    43 1   
    35    16    44 1   
    36    16    45 1   
    37    17    46 1   
    38    17    47 1   
    39    17    48 1   
    40    18    19 ar  
    41    18    20 1   
    42    20    21 1   
    43    20    49 1   
    44    21    22 ar  
    45    21    28 ar  
    46    22    23 ar  
    47    22    50 1   
    48    23    24 1   
    49    23    25 ar  
    50    24    51 1   
    51    24    52 1   
    52    25    26 ar  
    53    25    53 1   
    54    26    27 1   
    55    26    28 ar  
    56    28    54 1   
@<TRIPOS>SUBSTRUCTURE
     1 AP9         1 TEMP              0 ****  ****    0 ROOT
