@<TRIPOS>MOLECULE
AP9
   54    56     1     0     0
SMALL
bcc


@<TRIPOS>ATOM
      1 O1          -0.1180     3.6930    -2.3490 oh         1 AP9      -0.601800
      2 C15         -0.8400     2.8760    -1.4580 c3         1 AP9       0.112400
      3 C12         -0.2240     2.9890    -0.0690 c3         1 AP9       0.256500
      4 C13         -0.1750     4.4230     0.4820 c3         1 AP9      -0.069700
      5 C14         -1.5210     5.1280     0.3450 c3         1 AP9      -0.087100
      6 C16          0.2700     4.4250     1.9420 c3         1 AP9      -0.087100
      7 N2           1.1080     2.4250    -0.0310 nu         1 AP9      -0.860900
      8 C2           1.3970     1.1100     0.0440 ca         1 AP9       0.966900
      9 N3           2.6850     0.7740    -0.0430 nb         1 AP9      -0.817000
     10 C4           2.8740    -0.5340     0.0750 ca         1 AP9       0.498800
     11 C5           1.8950    -1.5010     0.2630 ca         1 AP9      -0.273200
     12 N7           2.4500    -2.7530     0.3290 nc         1 AP9      -0.549100
     13 C8           3.7250    -2.5430     0.1860 cd         1 AP9       0.396700
     14 N9           4.0490    -1.2210     0.0320 na         1 AP9      -0.257000
     15 C9           5.3770    -0.6590    -0.1990 c3         1 AP9       0.063000
     16 C10          6.3380    -1.0750     0.9050 c3         1 AP9      -0.107100
     17 C11          5.8800    -1.0360    -1.5850 c3         1 AP9      -0.107100
     18 C6           0.5750    -1.0270     0.3190 ca         1 AP9       0.810200
     19 N1           0.3560     0.2730     0.2130 nb         1 AP9      -0.868000
     20 N6          -0.4420    -1.9120     0.4740 nu         1 AP9      -0.729300
     21 C1A         -1.8200    -1.7320     0.4750 ca         1 AP9       0.223600
     22 C2A         -2.4470    -0.4940     0.3760 ca         1 AP9      -0.234000
     23 C3A         -3.8440    -0.4050     0.3690 ca         1 AP9       0.190600
     24 N10         -4.4470     0.8180     0.2080 nv         1 AP9      -0.829200
     25 C4A         -4.6160    -1.5660     0.4740 ca         1 AP9      -0.229000
     26 C5A         -3.9640    -2.7810     0.5770 ca         1 AP9       0.101400
     27 CL1         -4.9190    -4.2260     0.7120 cl         1 AP9      -0.119400
     28 C6A         -2.5890    -2.9000     0.5800 ca         1 AP9      -0.231000
     29 HO1         -0.4900     3.5820    -3.2280 ho         1 AP9       0.405000
     30 H151        -0.8130     1.8220    -1.7630 h1         1 AP9       0.033700
     31 H152        -1.8990     3.1590    -1.4060 h1         1 AP9       0.033700
     32 H12         -0.8560     2.3990     0.6030 h1         1 AP9       0.072700
     33 H13          0.5590     4.9890    -0.1030 hc         1 AP9       0.062700
     34 H141        -2.3180     4.5650     0.8370 hc         1 AP9       0.035200
     35 H142        -1.4780     6.1120     0.8150 hc         1 AP9       0.035200
     36 H143        -1.8070     5.2780    -0.6960 hc         1 AP9       0.035200
     37 H161        -0.4430     3.8810     2.5670 hc         1 AP9       0.035200
     38 H162         1.2490     3.9660     2.0780 hc         1 AP9       0.035200
     39 H163         0.3300     5.4460     2.3220 hc         1 AP9       0.035200
     40 HN2          1.8830     3.0310    -0.2500 hn         1 AP9       0.453800
     41 H8           4.4820    -3.3130     0.1870 h5         1 AP9       0.064800
     42 H9           5.2400     0.4220    -0.1560 h1         1 AP9       0.089700
     43 H101         7.3020    -0.5900     0.7530 hc         1 AP9       0.046700
     44 H102         5.9640    -0.7830     1.8850 hc         1 AP9       0.046700
     45 H103         6.5100    -2.1520     0.9060 hc         1 AP9       0.046700
     46 H111         5.1720    -0.7280    -2.3550 hc         1 AP9       0.046700
     47 H112         6.8310    -0.5430    -1.7840 hc         1 AP9       0.046700
     48 H113         6.0370    -2.1130    -1.6740 hc         1 AP9       0.046700
     49 HN6         -0.1400    -2.8730     0.5470 hn         1 AP9       0.465800
     50 H2A         -1.8510     0.4010     0.2970 ha         1 AP9       0.170000
     51 H11         -3.9100     1.6220     0.4900 hn         1 AP9       0.398300
     52 H12A        -5.4090     0.8850     0.4980 hn         1 AP9       0.398300
     53 H4A         -5.6970    -1.5120     0.4760 ha         1 AP9       0.147000
     54 H6A         -2.1160    -3.8690     0.6590 ha         1 AP9       0.149000
@<TRIPOS>BOND
     1     1     2 1   
     2     1    29 1   
     3     2     3 1   
     4     2    30 1   
     5     2    31 1   
     6     3     4 1   
     7     3     7 1   
     8     3    32 1   
     9     4     5 1   
    10     4     6 1   
    11     4    33 1   
    12     5    34 1   
    13     5    35 1   
    14     5    36 1   
    15     6    37 1   
    16     6    38 1   
    17     6    39 1   
    18     7     8 1   
    19     7    40 1   
    20     8     9 ar  
    21     8    19 ar  
    22     9    10 ar  
    23    10    11 ar  
    24    10    14 1   
    25    11    12 1   
    26    11    18 ar  
    27    12    13 2   
    28    13    14 1   
    29    13    41 1   
    30    14    15 1   
    31    15    16 1   
    32    15    17 1   
    33    15    42 1   
    34    16    43 1   
    35    16    44 1   
    36    16    45 1   
    37    17    46 1   
    38    17    47 1   
    39    17    48 1   
    40    18    19 ar  
    41    18    20 1   
    42    20    21 1   
    43    20    49 1   
    44    21    22 ar  
    45    21    28 ar  
    46    22    23 ar  
    47    22    50 1   
    48    23    24 1   
    49    23    25 ar  
    50    24    51 1   
    51    24    52 1   
    52    25    26 ar  
    53    25    53 1   
    54    26    27 1   
    55    26    28 ar  
    56    28    54 1   
@<TRIPOS>SUBSTRUCTURE
     1 AP9         1 TEMP              0 ****  ****    0 ROOT
