@<TRIPOS>MOLECULE
APA
   26    26     1     0     0
SMALL
No Charge or Current Charge


@<TRIPOS>ATOM
      1 C1           4.0390     0.2630    -0.0130 c          1 APA       0.691000
      2 O1           4.7920    -0.7020     0.0510 o          1 APA      -0.719500
      3 OXT          4.4190     1.4220     0.0710 o          1 APA      -0.719500
      4 C2           2.5310    -0.0150    -0.3650 c3         1 APA       0.024300
      5 O2           2.3480    -1.3330    -0.9480 oh         1 APA      -0.704000
      6 C3           1.6330     0.1300     0.8910 c3         1 APA      -0.045100
      7 C7           0.1390     0.0740     0.5810 ca         1 APA      -0.011300
      8 C8          -0.6300    -1.0420     0.9570 ca         1 APA      -0.120000
      9 C9          -2.0070    -1.0860     0.6780 ca         1 APA      -0.083000
     10 C4          -2.6530    -0.0060     0.0320 ca         1 APA      -0.182900
     11 C5          -1.8660     1.1050    -0.3590 ca         1 APA      -0.083000
     12 C6          -0.4890     1.1450    -0.0800 ca         1 APA      -0.120000
     13 C           -4.1180    -0.0780    -0.2860 ce         1 APA       0.667800
     14 N1          -4.7780     1.0790    -0.5020 nv         1 APA      -1.074200
     15 N2          -4.7880    -1.1560    -0.2610 n2         1 APA      -0.836100
     16 H31          1.9070    -0.6430     1.6200 hc         1 APA       0.053200
     17 H32          1.8590     1.0880     1.3740 hc         1 APA       0.053200
     18 H2          -0.1590    -1.8820     1.4620 ha         1 APA       0.117000
     19 H3          -2.5740    -1.9650     0.9770 ha         1 APA       0.109500
     20 H5          -2.3110     1.9430    -0.8910 ha         1 APA       0.109500
     21 H6           0.0940     2.0110    -0.3830 ha         1 APA       0.117000
     22 HN11        -4.2750     1.9110    -0.2170 hn         1 APA       0.450500
     23 HN12        -5.7680     1.0750    -0.2890 hn         1 APA       0.450500
     24 HN2         -5.7060    -0.9670    -0.6750 hn         1 APA       0.351400
     25 H11          2.2300     0.7520    -1.0920 h1         1 APA       0.029700
     26 H12          3.2080    -1.7960    -0.7930 ho         1 APA       0.472000
@<TRIPOS>BOND
     1     1     2 1   
     2     1     3 1   
     3     1     4 1   
     4     4     5 1   
     5     4     6 1   
     6     4    25 1   
     7     5    26 1   
     8     6     7 1   
     9     6    16 1   
    10     6    17 1   
    11     7     8 ar  
    12     7    12 ar  
    13     8     9 ar  
    14     8    18 1   
    15     9    10 ar  
    16     9    19 1   
    17    10    11 ar  
    18    10    13 1   
    19    11    12 ar  
    20    11    20 1   
    21    12    21 1   
    22    13    14 1   
    23    13    15 2   
    24    14    22 1   
    25    14    23 1   
    26    15    24 1   
@<TRIPOS>SUBSTRUCTURE
     1 APA         1 TEMP              0 ****  ****    0 ROOT
