@<TRIPOS>MOLECULE
APA
   26    26     1     0     0
SMALL
abcg2


@<TRIPOS>ATOM
      1 C1           3.9720     0.0440    -0.0430 c          1 APA       0.691000
      2 O1           4.6280    -1.0130    -0.1900 o          1 APA      -0.719500
      3 OXT          4.3940     1.1520     0.3190 o          1 APA      -0.719500
      4 C2           2.4630    -0.0830    -0.3540 c3         1 APA       0.024300
      5 O2           2.1740    -1.3930    -0.7650 oh         1 APA      -0.704000
      6 C3           1.6230     0.3120     0.8660 c3         1 APA      -0.045100
      7 C7           0.1530     0.2120     0.5860 ca         1 APA      -0.011300
      8 C8          -0.5670    -0.9430     0.8850 ca         1 APA      -0.120000
      9 C9          -1.9190    -1.0390     0.5970 ca         1 APA      -0.083000
     10 C4          -2.5970     0.0220    -0.0010 ca         1 APA      -0.182900
     11 C5          -1.8800     1.1760    -0.3110 ca         1 APA      -0.083000
     12 C6          -0.5260     1.2650    -0.0220 ca         1 APA      -0.120000
     13 C           -4.0490    -0.1070    -0.2980 ce         1 APA       0.667800
     14 N1          -4.7280     1.0740    -0.4180 nv         1 APA      -1.074200
     15 N2          -4.5430    -1.2740    -0.4650 n2         1 APA      -0.836100
     16 H31          1.8890    -0.3320     1.7090 hc         1 APA       0.053200
     17 H32          1.8810     1.3350     1.1440 hc         1 APA       0.053200
     18 H2          -0.0650    -1.7770     1.3600 ha         1 APA       0.117000
     19 H3          -2.4610    -1.9410     0.8460 ha         1 APA       0.109500
     20 H5          -2.3650     2.0130    -0.7970 ha         1 APA       0.109500
     21 H6           0.0100     2.1710    -0.2780 ha         1 APA       0.117000
     22 HN11        -4.4030     1.8630     0.1160 hn         1 APA       0.450500
     23 HN12        -5.7330     1.0180    -0.4690 hn         1 APA       0.450500
     24 HN2         -5.5450    -1.2260    -0.6250 hn         1 APA       0.351400
     25 H11          2.2280     0.6250    -1.1640 h1         1 APA       0.029700
     26 H12          3.0430    -1.8290    -0.6880 ho         1 APA       0.472000
@<TRIPOS>BOND
     1     1     2 1   
     2     1     3 1   
     3     1     4 1   
     4     4     5 1   
     5     4     6 1   
     6     4    25 1   
     7     5    26 1   
     8     6     7 1   
     9     6    16 1   
    10     6    17 1   
    11     7     8 ar  
    12     7    12 ar  
    13     8     9 ar  
    14     8    18 1   
    15     9    10 ar  
    16     9    19 1   
    17    10    11 ar  
    18    10    13 1   
    19    11    12 ar  
    20    11    20 1   
    21    12    21 1   
    22    13    14 1   
    23    13    15 2   
    24    14    22 1   
    25    14    23 1   
    26    15    24 1   
@<TRIPOS>SUBSTRUCTURE
     1 APA         1 TEMP              0 ****  ****    0 ROOT
