@<TRIPOS>MOLECULE
APD
   25    25     1     0     0
SMALL
No Charge or Current Charge


@<TRIPOS>ATOM
      1 C            0.5210    -0.0890    -3.1440 c          1 APD       0.724000
      2 O           -0.3940    -0.5080    -3.8440 o          1 APD      -0.729500
      3 CA           0.1960     0.3530    -1.6550 c3         1 APD       0.026500
      4 N           -0.8540     1.4220    -1.4790 n8         1 APD      -0.987200
      5 CB          -0.1500    -0.8810    -0.7790 c3         1 APD      -0.072100
      6 CG          -0.3210    -0.5530     0.7030 ca         1 APD      -0.045300
      7 CD1         -1.5910    -0.6250     1.3090 ca         1 APD      -0.126000
      8 CD2          0.7950    -0.1860     1.4810 ca         1 APD      -0.108000
      9 CE1         -1.7410    -0.3280     2.6740 ca         1 APD      -0.116000
     10 CE2          0.6500     0.1150     2.8490 ca         1 APD      -0.086300
     11 CZ          -0.6240     0.0410     3.4420 ca         1 APD      -0.135000
     12 C5           1.8620     0.5080     3.6790 c3         1 APD      -0.039800
     13 OXT          1.6610     0.0700    -3.5610 o          1 APD      -0.729500
     14 HA           1.1300     0.7700    -1.2550 h1         1 APD       0.046700
     15 HN1         -1.7240     1.1000    -1.9190 hn         1 APD       0.378500
     16 HN2         -1.0910     1.4790    -0.4820 hn         1 APD       0.378500
     17 HBC1         0.6500    -1.6220    -0.8930 hc         1 APD       0.054700
     18 HBC2        -1.0560    -1.3590    -1.1730 hc         1 APD       0.054700
     19 HD1         -2.4620    -0.9100     0.7240 ha         1 APD       0.109000
     20 HD2          1.7790    -0.1360     1.0190 ha         1 APD       0.117000
     21 HE1         -2.7230    -0.3840     3.1370 ha         1 APD       0.095000
     22 HZ          -0.7490     0.2670     4.4980 ha         1 APD       0.092000
     23 H5C1         2.3580    -0.3790     4.0900 hc         1 APD       0.032700
     24 H5C2         2.5980     1.0550     3.0780 hc         1 APD       0.032700
     25 H5C3         1.5800     1.1530     4.5200 hc         1 APD       0.032700
@<TRIPOS>BOND
     1     1     2 1   
     2     1     3 1   
     3     1    13 1   
     4     3     4 1   
     5     3     5 1   
     6     3    14 1   
     7     4    15 1   
     8     4    16 1   
     9     5     6 1   
    10     5    17 1   
    11     5    18 1   
    12     6     7 ar  
    13     6     8 ar  
    14     7     9 ar  
    15     7    19 1   
    16     8    10 ar  
    17     8    20 1   
    18     9    11 ar  
    19     9    21 1   
    20    10    11 ar  
    21    10    12 1   
    22    11    22 1   
    23    12    23 1   
    24    12    24 1   
    25    12    25 1   
@<TRIPOS>SUBSTRUCTURE
     1 APD         1 TEMP              0 ****  ****    0 ROOT
