@<TRIPOS>MOLECULE
APD
   25    25     1     0     0
SMALL
bcc


@<TRIPOS>ATOM
      1 C            0.4090    -0.0090    -3.0630 c          1 APD       0.934600
      2 O           -0.5340     0.0090    -3.8770 o          1 APD      -0.834800
      3 CA           0.0970     0.4100    -1.6090 c3         1 APD       0.026500
      4 N           -1.0740     1.2640    -1.5530 n8         1 APD      -0.876800
      5 CB          -0.0050    -0.8740    -0.7500 c3         1 APD      -0.072100
      6 CG          -0.2250    -0.5720     0.7030 ca         1 APD      -0.045300
      7 CD1         -1.5040    -0.5560     1.2560 ca         1 APD      -0.144000
      8 CD2          0.8530    -0.2350     1.5200 ca         1 APD      -0.126000
      9 CE1         -1.6910    -0.2140     2.5890 ca         1 APD      -0.134000
     10 CE2          0.6870     0.1070     2.8590 ca         1 APD      -0.086300
     11 CZ          -0.6040     0.1170     3.3850 ca         1 APD      -0.153000
     12 C5           1.8730     0.4320     3.7210 c3         1 APD      -0.039800
     13 OXT          1.5800    -0.3750    -3.2870 o          1 APD      -0.834800
     14 HA           0.9550     0.9780    -1.2310 h1         1 APD       0.046700
     15 HN1         -1.8230     0.8170    -2.0670 hn         1 APD       0.323300
     16 HN2         -1.3950     1.3610    -0.5970 hn         1 APD       0.323300
     17 HBC1         0.9130    -1.4520    -0.8710 hc         1 APD       0.054700
     18 HBC2        -0.8250    -1.4880    -1.1330 hc         1 APD       0.054700
     19 HD1         -2.3590    -0.8160     0.6420 ha         1 APD       0.127000
     20 HD2          1.8540    -0.2440     1.1000 ha         1 APD       0.135000
     21 HE1         -2.6890    -0.2050     3.0080 ha         1 APD       0.113000
     22 HZ          -0.7590     0.3840     4.4250 ha         1 APD       0.110000
     23 H5C1         2.3490    -0.4790     4.0910 hc         1 APD       0.032700
     24 H5C2         2.6300     0.9880     3.1680 hc         1 APD       0.032700
     25 H5C3         1.5870     1.0240     4.5900 hc         1 APD       0.032700
@<TRIPOS>BOND
     1     1     2 1   
     2     1     3 1   
     3     1    13 1   
     4     3     4 1   
     5     3     5 1   
     6     3    14 1   
     7     4    15 1   
     8     4    16 1   
     9     5     6 1   
    10     5    17 1   
    11     5    18 1   
    12     6     7 ar  
    13     6     8 ar  
    14     7     9 ar  
    15     7    19 1   
    16     8    10 ar  
    17     8    20 1   
    18     9    11 ar  
    19     9    21 1   
    20    10    11 ar  
    21    10    12 1   
    22    11    22 1   
    23    12    23 1   
    24    12    24 1   
    25    12    25 1   
@<TRIPOS>SUBSTRUCTURE
     1 APD         1 TEMP              0 ****  ****    0 ROOT
