@<TRIPOS>MOLECULE
APE
   24    24     1     0     0
SMALL
No Charge or Current Charge


@<TRIPOS>ATOM
      1 N            0.7010     1.5090     1.1850 n8         1 APE      -0.923800
      2 CA           0.9180     0.3500     0.3400 c3         1 APE       0.325900
      3 CB          -0.0620     0.3120    -0.8610 c3         1 APE      -0.044100
      4 CG          -1.5060     0.0350    -0.4530 ca         1 APE      -0.032300
      5 CD1         -2.4920     1.0350    -0.5790 ca         1 APE      -0.120500
      6 CD2         -1.8710    -1.2330     0.0410 ca         1 APE      -0.120500
      7 CE1         -3.8230     0.7710    -0.2110 ca         1 APE      -0.136500
      8 CE2         -3.2020    -1.4970     0.4090 ca         1 APE      -0.136500
      9 CZ          -4.1780    -0.4950     0.2830 ca         1 APE      -0.150000
     10 NHO          2.2820     0.5160    -0.0680 ns         1 APE      -0.643900
     11 C            3.0850    -0.4880    -0.5030 c          1 APE       0.997600
     12 O            2.6700    -1.6340    -0.5000 o          1 APE      -0.847300
     13 OXT          4.2040    -0.1690    -0.8590 o          1 APE      -0.847300
     14 H            1.4620     1.5460     1.8670 hn         1 APE       0.337800
     15 H2           0.8250     2.3470     0.6140 hn         1 APE       0.337800
     16 HA           0.8340    -0.5760     0.9280 h2         1 APE       0.081700
     17 HB2          0.0090     1.2540    -1.4180 hc         1 APE       0.041200
     18 HB3          0.2630    -0.4700    -1.5570 hc         1 APE       0.041200
     19 HD1         -2.2260     2.0190    -0.9600 ha         1 APE       0.128500
     20 HD2         -1.1220    -2.0160     0.1370 ha         1 APE       0.128500
     21 HE1         -4.5780     1.5490    -0.3100 ha         1 APE       0.115000
     22 HE2         -3.4760    -2.4790     0.7900 ha         1 APE       0.115000
     23 HZ          -5.2090    -0.6990     0.5680 ha         1 APE       0.112000
     24 HN           2.6770     1.4410    -0.1010 hn         1 APE       0.243500
@<TRIPOS>BOND
     1     1     2 1   
     2     1    14 1   
     3     1    15 1   
     4     2     3 1   
     5     2    10 1   
     6     2    16 1   
     7     3     4 1   
     8     3    17 1   
     9     3    18 1   
    10     4     5 ar  
    11     4     6 ar  
    12     5     7 ar  
    13     5    19 1   
    14     6     8 ar  
    15     6    20 1   
    16     7     9 ar  
    17     7    21 1   
    18     8     9 ar  
    19     8    22 1   
    20     9    23 1   
    21    10    11 1   
    22    10    24 1   
    23    11    12 1   
    24    11    13 1   
@<TRIPOS>SUBSTRUCTURE
     1 APE         1 TEMP              0 ****  ****    0 ROOT
