@<TRIPOS>MOLECULE
APE
   24    24     1     0     0
SMALL
bcc


@<TRIPOS>ATOM
      1 N            0.6430     1.1200     1.0510 n8         1 APE      -0.923800
      2 CA           0.9110     0.1240     0.0280 c3         1 APE       0.325900
      3 CB          -0.1550     0.2040    -1.0690 c3         1 APE      -0.044100
      4 CG          -1.5530     0.0140    -0.5560 ca         1 APE      -0.032300
      5 CD1         -2.3750     1.1040    -0.2790 ca         1 APE      -0.120500
      6 CD2         -2.0570    -1.2660    -0.3350 ca         1 APE      -0.120500
      7 CE1         -3.6640     0.9240     0.2030 ca         1 APE      -0.136500
      8 CE2         -3.3440    -1.4540     0.1530 ca         1 APE      -0.136500
      9 CZ          -4.1540    -0.3580     0.4230 ca         1 APE      -0.150000
     10 NHO          2.2120     0.1820    -0.6000 ns         1 APE      -0.643900
     11 C            3.3880    -0.0120     0.1510 c          1 APE       0.997600
     12 O            3.2670    -0.5860     1.2550 o          1 APE      -0.847300
     13 OXT          4.4480     0.3860    -0.3760 o          1 APE      -0.847300
     14 H            1.3660     1.0460     1.7570 hn         1 APE       0.337800
     15 H2           0.7280     2.0490     0.6530 hn         1 APE       0.337800
     16 HA           0.8270    -0.8510     0.5140 h2         1 APE       0.081700
     17 HB2         -0.0760     1.1730    -1.5730 hc         1 APE       0.041200
     18 HB3          0.0720    -0.5580    -1.8190 hc         1 APE       0.041200
     19 HD1         -2.0020     2.1070    -0.4480 ha         1 APE       0.128500
     20 HD2         -1.4370    -2.1290    -0.5490 ha         1 APE       0.128500
     21 HE1         -4.2870     1.7850     0.4070 ha         1 APE       0.115000
     22 HE2         -3.7160    -2.4570     0.3160 ha         1 APE       0.115000
     23 HZ          -5.1590    -0.5020     0.7980 ha         1 APE       0.112000
     24 HN           2.3020     0.8830    -1.3230 hn         1 APE       0.243500
@<TRIPOS>BOND
     1     1     2 1   
     2     1    14 1   
     3     1    15 1   
     4     2     3 1   
     5     2    10 1   
     6     2    16 1   
     7     3     4 1   
     8     3    17 1   
     9     3    18 1   
    10     4     5 ar  
    11     4     6 ar  
    12     5     7 ar  
    13     5    19 1   
    14     6     8 ar  
    15     6    20 1   
    16     7     9 ar  
    17     7    21 1   
    18     8     9 ar  
    19     8    22 1   
    20     9    23 1   
    21    10    11 1   
    22    10    24 1   
    23    11    12 1   
    24    11    13 1   
@<TRIPOS>SUBSTRUCTURE
     1 APE         1 TEMP              0 ****  ****    0 ROOT
