@<TRIPOS>MOLECULE
APF
   30    30     1     0     0
SMALL
No Charge or Current Charge


@<TRIPOS>ATOM
      1 CN2          3.5450    -0.1280     1.0950 c3         1 APF      -0.179100
      2 CN1          2.1620    -0.5710     0.6420 c          1 APF       0.606100
      3 ON1          1.7200    -1.6860     0.8730 o          1 APF      -0.588100
      4 N3           1.4560     0.3790    -0.0620 ns         1 APF      -0.505900
      5 C3           0.0560     0.2270    -0.5280 c3         1 APF       0.030700
      6 C2          -0.0920     0.7680    -1.9770 c          1 APF       0.497100
      7 C1          -1.0020    -0.0530    -2.9270 c3         1 APF       0.202000
      8 C4          -0.9440     0.9080     0.4420 c3         1 APF      -0.040100
      9 O2           0.5100     1.7740    -2.3480 o          1 APF      -0.440100
     10 F11         -1.2030     0.5800    -4.1080 f          1 APF      -0.100667
     11 F12         -0.4550    -1.2590    -3.2060 f          1 APF      -0.100667
     12 F13         -2.2210    -0.2780    -2.3830 f          1 APF      -0.100667
     13 CP1         -0.8360     0.3920     1.8730 ca         1 APF      -0.086300
     14 CP2         -0.1140     1.1180     2.8410 ca         1 APF      -0.102000
     15 CP3         -0.0080     0.6350     4.1570 ca         1 APF      -0.106500
     16 CP4         -0.6250    -0.5770     4.5130 ca         1 APF      -0.103000
     17 CP5         -1.3470    -1.3040     3.5520 ca         1 APF      -0.106500
     18 CP6         -1.4520    -0.8220     2.2360 ca         1 APF      -0.102000
     19 HC21         3.4460     0.7820     1.6970 hc         1 APF       0.064700
     20 HC22         4.0830    -0.9150     1.6370 hc         1 APF       0.064700
     21 HC23         4.1110     0.2260     0.2260 hc         1 APF       0.064700
     22 HN3          1.9230     1.2660    -0.2190 hn         1 APF       0.322500
     23 H3          -0.1860    -0.8440    -0.5660 h1         1 APF       0.112700
     24 H41         -0.7770     1.9930     0.4210 hc         1 APF       0.063700
     25 H42         -1.9670     0.7570     0.0760 hc         1 APF       0.063700
     26 HP2          0.3700     2.0550     2.5740 ha         1 APF       0.111000
     27 HP3          0.5520     1.1990     4.9000 ha         1 APF       0.115500
     28 HP4         -0.5430    -0.9510     5.5310 ha         1 APF       0.115000
     29 HP5         -1.8240    -2.2430     3.8260 ha         1 APF       0.115500
     30 HP6         -2.0090    -1.3930     1.4970 ha         1 APF       0.111000
@<TRIPOS>BOND
     1     1     2 1   
     2     1    19 1   
     3     1    20 1   
     4     1    21 1   
     5     2     3 2   
     6     2     4 1   
     7     4     5 1   
     8     4    22 1   
     9     5     6 1   
    10     5     8 1   
    11     5    23 1   
    12     6     7 1   
    13     6     9 2   
    14     7    10 1   
    15     7    11 1   
    16     7    12 1   
    17     8    13 1   
    18     8    24 1   
    19     8    25 1   
    20    13    14 ar  
    21    13    18 ar  
    22    14    15 ar  
    23    14    26 1   
    24    15    16 ar  
    25    15    27 1   
    26    16    17 ar  
    27    16    28 1   
    28    17    18 ar  
    29    17    29 1   
    30    18    30 1   
@<TRIPOS>SUBSTRUCTURE
     1 APF         1 TEMP              0 ****  ****    0 ROOT
