@<TRIPOS>MOLECULE
APF
   30    30     1     0     0
SMALL
abcg2


@<TRIPOS>ATOM
      1 CN2          3.6940    -0.1470     0.7410 c3         1 APF      -0.179100
      2 CN1          2.3790    -0.5830     0.1480 c          1 APF       0.606100
      3 ON1          2.1720    -1.7090    -0.2730 o          1 APF      -0.588100
      4 N3           1.4310     0.3820     0.1330 ns         1 APF      -0.505900
      5 C3           0.1030     0.1680    -0.3610 c3         1 APF       0.030700
      6 C2          -0.0000     0.6160    -1.8100 c          1 APF       0.497100
      7 C1          -0.9070    -0.2120    -2.7370 c3         1 APF       0.202000
      8 C4          -0.9210     0.9500     0.4860 c3         1 APF      -0.040100
      9 O2           0.5900     1.5550    -2.2590 o          1 APF      -0.440100
     10 F11         -1.1490     0.4170    -3.8760 f          1 APF      -0.100667
     11 F12         -0.3000    -1.3690    -3.0120 f          1 APF      -0.100667
     12 F13         -2.0750    -0.4930    -2.1540 f          1 APF      -0.100667
     13 CP1         -0.9120     0.4780     1.9130 ca         1 APF      -0.086300
     14 CP2         -0.2190     1.1770     2.8960 ca         1 APF      -0.102000
     15 CP3         -0.1910     0.7160     4.2070 ca         1 APF      -0.106500
     16 CP4         -0.8560    -0.4540     4.5480 ca         1 APF      -0.103000
     17 CP5         -1.5520    -1.1580     3.5730 ca         1 APF      -0.106500
     18 CP6         -1.5790    -0.6930     2.2660 ca         1 APF      -0.102000
     19 HC21         3.5720     0.1040     1.7960 hc         1 APF       0.064700
     20 HC22         4.4300    -0.9420     0.6550 hc         1 APF       0.064700
     21 HC23         4.0740     0.7410     0.2360 hc         1 APF       0.064700
     22 HN3          1.6750     1.3070     0.4510 hn         1 APF       0.322500
     23 H3          -0.1240    -0.8980    -0.2860 h1         1 APF       0.112700
     24 H41         -0.6880     2.0170     0.4300 hc         1 APF       0.063700
     25 H42         -1.9180     0.8250     0.0610 hc         1 APF       0.063700
     26 HP2          0.2950     2.0950     2.6400 ha         1 APF       0.111000
     27 HP3          0.3510     1.2720     4.9600 ha         1 APF       0.115500
     28 HP4         -0.8360    -0.8140     5.5690 ha         1 APF       0.115000
     29 HP5         -2.0780    -2.0680     3.8310 ha         1 APF       0.115500
     30 HP6         -2.1310    -1.2440     1.5130 ha         1 APF       0.111000
@<TRIPOS>BOND
     1     1     2 1   
     2     1    19 1   
     3     1    20 1   
     4     1    21 1   
     5     2     3 2   
     6     2     4 1   
     7     4     5 1   
     8     4    22 1   
     9     5     6 1   
    10     5     8 1   
    11     5    23 1   
    12     6     7 1   
    13     6     9 2   
    14     7    10 1   
    15     7    11 1   
    16     7    12 1   
    17     8    13 1   
    18     8    24 1   
    19     8    25 1   
    20    13    14 ar  
    21    13    18 ar  
    22    14    15 ar  
    23    14    26 1   
    24    15    16 ar  
    25    15    27 1   
    26    16    17 ar  
    27    16    28 1   
    28    17    18 ar  
    29    17    29 1   
    30    18    30 1   
@<TRIPOS>SUBSTRUCTURE
     1 APF         1 TEMP              0 ****  ****    0 ROOT
