@<TRIPOS>MOLECULE
APG
   21    21     1     0     0
SMALL
abcg2


@<TRIPOS>ATOM
      1 C1          -1.1170    -0.5000     2.6080 ca         1 APG      -0.131500
      2 C2          -1.2210    -0.1520     1.2660 ca         1 APG      -0.096500
      3 C3          -0.1010     0.2400     0.5350 ca         1 APG      -0.027300
      4 C4           1.1310     0.2720     1.1920 ca         1 APG      -0.096500
      5 C5           1.2360    -0.0710     2.5320 ca         1 APG      -0.131500
      6 C6           0.1120    -0.4600     3.2500 ca         1 APG      -0.145000
      7 C12         -0.2220     0.5850    -0.9420 c3         1 APG       0.061300
      8 O17         -1.5700     0.7520    -1.3010 oh         1 APG      -0.708000
      9 C13          0.3410    -0.6220    -1.7630 c          1 APG       0.703000
     10 C14          0.5450     1.8600    -1.2910 c3         1 APG      -0.061100
     11 O14         -0.5220    -1.2280    -2.4380 o          1 APG      -0.706500
     12 O15          1.5500    -0.8700    -1.6800 o          1 APG      -0.706500
     13 H1          -2.0040    -0.8000     3.1510 ha         1 APG       0.087000
     14 H2          -2.1900    -0.1810     0.7880 ha         1 APG       0.121000
     15 H4           2.0250     0.5600     0.6580 ha         1 APG       0.121000
     16 H5           2.2040    -0.0360     3.0180 ha         1 APG       0.087000
     17 H6           0.1950    -0.7260     4.2960 ha         1 APG       0.085000
     18 HO17        -1.7180    -0.0120    -1.8940 ho         1 APG       0.478000
     19 H141         1.6050     1.7800    -1.0610 hc         1 APG       0.022033
     20 H142         0.4550     2.0740    -2.3580 hc         1 APG       0.022033
     21 H143         0.1440     2.7130    -0.7410 hc         1 APG       0.022033
@<TRIPOS>BOND
     1     1     2 ar  
     2     1     6 ar  
     3     1    13 1   
     4     2     3 ar  
     5     2    14 1   
     6     3     4 ar  
     7     3     7 1   
     8     4     5 ar  
     9     4    15 1   
    10     5     6 ar  
    11     5    16 1   
    12     6    17 1   
    13     7     8 1   
    14     7     9 1   
    15     7    10 1   
    16     8    18 1   
    17     9    11 1   
    18     9    12 1   
    19    10    19 1   
    20    10    20 1   
    21    10    21 1   
@<TRIPOS>SUBSTRUCTURE
     1 APG         1 TEMP              0 ****  ****    0 ROOT
