@<TRIPOS>MOLECULE
APG
   21    21     1     0     0
SMALL
No Charge or Current Charge


@<TRIPOS>ATOM
      1 C1          -0.9370    -0.9610     2.4910 ca         1 APG      -0.131500
      2 C2          -1.0150    -0.5870     1.1380 ca         1 APG      -0.096500
      3 C3          -0.0540     0.2770     0.5650 ca         1 APG      -0.027300
      4 C4           0.9910     0.7590     1.3920 ca         1 APG      -0.096500
      5 C5           1.0660     0.3830     2.7450 ca         1 APG      -0.131500
      6 C6           0.1040    -0.4760     3.2950 ca         1 APG      -0.145000
      7 C12         -0.1850     0.6510    -0.9320 c3         1 APG       0.061300
      8 O17         -1.4640     1.3130    -1.1240 oh         1 APG      -0.708000
      9 C13         -0.1240    -0.6750    -1.7960 c          1 APG       0.703000
     10 C14          0.9000     1.6400    -1.4410 c3         1 APG      -0.061100
     11 O14         -1.1430    -0.9990    -2.3980 o          1 APG      -0.706500
     12 O15          0.9100    -1.3310    -1.8260 o          1 APG      -0.706500
     13 H1          -1.6850    -1.6270     2.9140 ha         1 APG       0.087000
     14 H2          -1.8310    -0.9720     0.5310 ha         1 APG       0.121000
     15 H4           1.7560     1.4260     1.0040 ha         1 APG       0.121000
     16 H5           1.8750     0.7610     3.3670 ha         1 APG       0.087000
     17 H6           0.1650    -0.7650     4.3420 ha         1 APG       0.085000
     18 HO17        -1.9660     0.6970    -1.7120 ho         1 APG       0.478000
     19 H141         1.9050     1.2160    -1.3320 hc         1 APG       0.022033
     20 H142         0.7490     1.8620    -2.5050 hc         1 APG       0.022033
     21 H143         0.8620     2.5880    -0.8910 hc         1 APG       0.022033
@<TRIPOS>BOND
     1     1     2 ar  
     2     1     6 ar  
     3     1    13 1   
     4     2     3 ar  
     5     2    14 1   
     6     3     4 ar  
     7     3     7 1   
     8     4     5 ar  
     9     4    15 1   
    10     5     6 ar  
    11     5    16 1   
    12     6    17 1   
    13     7     8 1   
    14     7     9 1   
    15     7    10 1   
    16     8    18 1   
    17     9    11 1   
    18     9    12 1   
    19    10    19 1   
    20    10    20 1   
    21    10    21 1   
@<TRIPOS>SUBSTRUCTURE
     1 APG         1 TEMP              0 ****  ****    0 ROOT
