@<TRIPOS>MOLECULE
APH
   27    27     1     0     0
SMALL
No Charge or Current Charge


@<TRIPOS>ATOM
      1 N           16.3200   -14.2570    20.8250 n8         1 APH      -0.885800
      2 CA          16.4140   -12.8450    20.2860 c3         1 APH       0.016500
      3 C           17.4950   -12.5820    19.1510 c          1 APH       0.903600
      4 O           17.5120   -13.3180    18.1690 o          1 APH      -0.835800
      5 CB          15.0230   -12.3370    19.8200 c3         1 APH      -0.024100
      6 CG          13.9760   -12.2810    20.9320 ca         1 APH      -0.004300
      7 CD1         12.8890   -13.1740    20.9400 ca         1 APH      -0.140000
      8 CD2         14.0780   -11.3220    21.9550 ca         1 APH      -0.140000
      9 CE1         11.9190   -13.1100    21.9560 ca         1 APH      -0.101000
     10 CE2         13.1100   -11.2530    22.9730 ca         1 APH      -0.101000
     11 CZ          12.0030   -12.1380    22.9810 ca         1 APH      -0.183900
     12 CF          10.9750   -12.0980    24.0760 ce         1 APH       0.670800
     13 NG1         10.1660   -13.0520    24.3060 n2         1 APH      -0.840100
     14 NG2         10.8510   -10.9500    24.7860 nv         1 APH      -0.966800
     15 OXT         18.3510   -11.7240    19.3420 o          1 APH      -0.835800
     16 H           16.1550   -14.8960    20.0400 hn         1 APH       0.328300
     17 H2          17.2360   -14.5420    21.1870 hn         1 APH       0.328300
     18 HA          16.7160   -12.2150    21.1340 h1         1 APH       0.039700
     19 HB2         15.1440   -11.3310    19.4000 hc         1 APH       0.052200
     20 HB3         14.6710   -12.9630    18.9910 hc         1 APH       0.052200
     21 HD1         12.7970   -13.9250    20.1590 ha         1 APH       0.134500
     22 HD2         14.9150   -10.6270    21.9650 ha         1 APH       0.134500
     23 HE1         11.0930   -13.8170    21.9380 ha         1 APH       0.127000
     24 HE2         13.2360   -10.5120    23.7590 ha         1 APH       0.127000
     25 HG1          9.6550   -12.8350    25.1680 hn         1 APH       0.351400
     26 HG21        11.3040   -10.1400    24.3830 hn         1 APH       0.396300
     27 HG22         9.9660   -10.7900    25.2480 hn         1 APH       0.396300
@<TRIPOS>BOND
     1     1     2 1   
     2     1    16 1   
     3     1    17 1   
     4     2     3 1   
     5     2     5 1   
     6     2    18 1   
     7     3     4 1   
     8     3    15 1   
     9     5     6 1   
    10     5    19 1   
    11     5    20 1   
    12     6     7 ar  
    13     6     8 ar  
    14     7     9 ar  
    15     7    21 1   
    16     8    10 ar  
    17     8    22 1   
    18     9    11 ar  
    19     9    23 1   
    20    10    11 ar  
    21    10    24 1   
    22    11    12 1   
    23    12    13 2   
    24    12    14 1   
    25    13    25 1   
    26    14    26 1   
    27    14    27 1   
@<TRIPOS>SUBSTRUCTURE
     1 APH         1 TEMP              0 ****  ****    0 ROOT
