@<TRIPOS>MOLECULE
APH
   27    27     1     0     0
SMALL
bcc


@<TRIPOS>ATOM
      1 N           16.1360   -14.2790    20.7260 n8         1 APH      -0.885800
      2 CA          16.3700   -12.8980    20.3350 c3         1 APH       0.016500
      3 C           17.4440   -12.6930    19.2320 c          1 APH       0.903600
      4 O           17.7590   -13.6910    18.5550 o          1 APH      -0.835800
      5 CB          15.0550   -12.2550    19.8600 c3         1 APH      -0.024100
      6 CG          14.0030   -12.2100    20.9270 ca         1 APH      -0.004300
      7 CD1         12.9440   -13.1140    20.9560 ca         1 APH      -0.140000
      8 CD2         14.0730   -11.2610    21.9450 ca         1 APH      -0.140000
      9 CE1         11.9920   -13.0750    21.9610 ca         1 APH      -0.101000
     10 CE2         13.1230   -11.2140    22.9540 ca         1 APH      -0.101000
     11 CZ          12.0650   -12.1220    22.9750 ca         1 APH      -0.183900
     12 CF          11.0370   -12.1100    24.0510 ce         1 APH       0.670800
     13 NG1         10.4040   -13.1900    24.3110 n2         1 APH      -0.840100
     14 NG2         10.8970   -10.9230    24.7160 nv         1 APH      -0.966800
     15 OXT         17.8770   -11.5290    19.1030 o          1 APH      -0.835800
     16 H           16.1070   -14.8340    19.8770 hn         1 APH       0.328300
     17 H2          16.9530   -14.6170    21.2200 hn         1 APH       0.328300
     18 HA          16.6960   -12.3500    21.2250 h1         1 APH       0.039700
     19 HB2         15.2700   -11.2410    19.5170 hc         1 APH       0.052200
     20 HB3         14.6830   -12.8110    18.9930 hc         1 APH       0.052200
     21 HD1         12.8580   -13.8600    20.1740 ha         1 APH       0.134500
     22 HD2         14.8900   -10.5480    21.9530 ha         1 APH       0.134500
     23 HE1         11.1760   -13.7860    21.9610 ha         1 APH       0.127000
     24 HE2         13.2320   -10.4710    23.7340 ha         1 APH       0.127000
     25 HG1          9.7110   -13.0420    25.0400 hn         1 APH       0.351400
     26 HG21        11.1020   -10.0700    24.2210 hn         1 APH       0.396300
     27 HG22        10.1160   -10.8400    25.3470 hn         1 APH       0.396300
@<TRIPOS>BOND
     1     1     2 1   
     2     1    16 1   
     3     1    17 1   
     4     2     3 1   
     5     2     5 1   
     6     2    18 1   
     7     3     4 1   
     8     3    15 1   
     9     5     6 1   
    10     5    19 1   
    11     5    20 1   
    12     6     7 ar  
    13     6     8 ar  
    14     7     9 ar  
    15     7    21 1   
    16     8    10 ar  
    17     8    22 1   
    18     9    11 ar  
    19     9    23 1   
    20    10    11 ar  
    21    10    24 1   
    22    11    12 1   
    23    12    13 2   
    24    12    14 1   
    25    13    25 1   
    26    14    26 1   
    27    14    27 1   
@<TRIPOS>SUBSTRUCTURE
     1 APH         1 TEMP              0 ****  ****    0 ROOT
