@<TRIPOS>MOLECULE
API
   25    24     1     0     0
SMALL
abcg2


@<TRIPOS>ATOM
      1 C1           3.7560    -0.4630    -0.1580 c          1 API       0.724000
      2 C2           2.5700     0.2820     0.4900 c3         1 API       0.022500
      3 C3           1.2700    -0.2500    -0.1390 c3         1 API      -0.099400
      4 C4          -0.0040     0.3250     0.4700 c3         1 API      -0.081400
      5 C5          -1.2680    -0.2610    -0.1490 c3         1 API      -0.099400
      6 C6          -2.5750     0.2550     0.4770 c3         1 API       0.022500
      7 C7          -3.7580    -0.5030    -0.1640 c          1 API       0.724000
      8 O1           4.3500     0.1160    -1.0890 o          1 API      -0.745750
      9 O2           3.9920    -1.6110     0.2710 o          1 API      -0.745750
     10 O3          -4.4560     0.1140    -0.9920 o          1 API      -0.745750
     11 O4          -3.8910    -1.6970     0.1750 o          1 API      -0.745750
     12 N2           2.7570     1.7210     0.3840 n8         1 API      -0.998700
     13 N6          -2.7730     1.6930     0.3830 n8         1 API      -0.998700
     14 H2           2.5450     0.0220     1.5550 h1         1 API       0.039200
     15 H31          1.2830    -0.0420    -1.2160 hc         1 API       0.040700
     16 H32          1.2490    -1.3390    -0.0350 hc         1 API       0.040700
     17 H41         -0.0080     0.1390     1.5500 hc         1 API       0.014200
     18 H42         -0.0080     1.4130     0.3460 hc         1 API       0.014200
     19 H51         -1.2760    -0.0480    -1.2260 hc         1 API       0.040700
     20 H52         -1.2370    -1.3490    -0.0500 hc         1 API       0.040700
     21 H6          -2.5460    -0.0100     1.5420 h1         1 API       0.039200
     22 HN21         2.9660     1.9430    -0.5820 hn         1 API       0.374500
     23 HN22         1.9000     2.2070     0.6160 hn         1 API       0.374500
     24 HN61        -1.9200     2.1830     0.6200 hn         1 API       0.374500
     25 HN62        -2.9860     1.9270    -0.5790 hn         1 API       0.374500
@<TRIPOS>BOND
     1     1     2 1   
     2     1     8 1   
     3     1     9 1   
     4     2     3 1   
     5     2    12 1   
     6     2    14 1   
     7     3     4 1   
     8     3    15 1   
     9     3    16 1   
    10     4     5 1   
    11     4    17 1   
    12     4    18 1   
    13     5     6 1   
    14     5    19 1   
    15     5    20 1   
    16     6     7 1   
    17     6    13 1   
    18     6    21 1   
    19     7    10 1   
    20     7    11 1   
    21    12    22 1   
    22    12    23 1   
    23    13    24 1   
    24    13    25 1   
@<TRIPOS>SUBSTRUCTURE
     1 API         1 TEMP              0 ****  ****    0 ROOT
