@<TRIPOS>MOLECULE
API
   25    24     1     0     0
SMALL
No Charge or Current Charge


@<TRIPOS>ATOM
      1 C1           3.8410    -0.5780    -0.1100 c          1 API       0.724000
      2 C2           2.6100     0.2520     0.4580 c3         1 API       0.022500
      3 C3           1.2910    -0.1620    -0.2520 c3         1 API      -0.099400
      4 C4          -0.0030     0.3270     0.4490 c3         1 API      -0.081400
      5 C5          -1.2920    -0.1750    -0.2510 c3         1 API      -0.099400
      6 C6          -2.6140     0.2250     0.4600 c3         1 API       0.022500
      7 C7          -3.8370    -0.6180    -0.1070 c          1 API       0.724000
      8 O1           4.2160    -0.3630    -1.2570 o          1 API      -0.745750
      9 O2           4.4190    -1.3510     0.6430 o          1 API      -0.745750
     10 O3          -4.2160    -0.4070    -1.2540 o          1 API      -0.745750
     11 O4          -4.4060    -1.3980     0.6470 o          1 API      -0.745750
     12 N2           2.7510     1.7530     0.4560 n8         1 API      -0.998700
     13 N6          -2.7710     1.7240     0.4580 n8         1 API      -0.998700
     14 H2           2.5070    -0.0480     1.5100 h1         1 API       0.039200
     15 H31          1.3040     0.1950    -1.2890 hc         1 API       0.040700
     16 H32          1.2600    -1.2570    -0.3030 hc         1 API       0.040700
     17 H41         -0.0010    -0.0230     1.4890 hc         1 API       0.014200
     18 H42         -0.0090     1.4230     0.4780 hc         1 API       0.014200
     19 H51         -1.3100     0.1820    -1.2880 hc         1 API       0.040700
     20 H52         -1.2500    -1.2700    -0.3010 hc         1 API       0.040700
     21 H6          -2.5080    -0.0740     1.5120 h1         1 API       0.039200
     22 HN21         2.9300     2.0610    -0.5080 hn         1 API       0.374500
     23 HN22         1.8410     2.1680     0.6820 hn         1 API       0.374500
     24 HN61        -1.8650     2.1490     0.6830 hn         1 API       0.374500
     25 HN62        -2.9550     2.0300    -0.5050 hn         1 API       0.374500
@<TRIPOS>BOND
     1     1     2 1   
     2     1     8 1   
     3     1     9 1   
     4     2     3 1   
     5     2    12 1   
     6     2    14 1   
     7     3     4 1   
     8     3    15 1   
     9     3    16 1   
    10     4     5 1   
    11     4    17 1   
    12     4    18 1   
    13     5     6 1   
    14     5    19 1   
    15     5    20 1   
    16     6     7 1   
    17     6    13 1   
    18     6    21 1   
    19     7    10 1   
    20     7    11 1   
    21    12    22 1   
    22    12    23 1   
    23    13    24 1   
    24    13    25 1   
@<TRIPOS>SUBSTRUCTURE
     1 API         1 TEMP              0 ****  ****    0 ROOT
