@<TRIPOS>MOLECULE
APJ
   41    45     1     0     0
SMALL
abcg2


@<TRIPOS>ATOM
      1 N1           6.1710    63.1100    44.4280 nb         1 APJ      -0.283000
      2 N2           6.1840    64.5670    46.3260 nb         1 APJ      -0.270000
      3 N3           6.9590    60.9310    44.5740 nu         1 APJ      -0.933900
      4 N4           6.6790    59.2080    42.9810 na         1 APJ      -0.065200
      5 N5           6.2280    58.9550    41.7220 nc         1 APJ      -0.520800
      6 N6           5.3440    65.2650    44.3050 nu         1 APJ      -0.952900
      7 N7           4.4200    65.0990    38.8660 na         1 APJ      -0.323600
      8 N8           6.5460    64.8840    39.5190 nc         1 APJ      -0.573100
      9 C9           5.9260    64.2760    45.0390 ca         1 APJ       0.417900
     10 C10          6.7260    62.1480    45.1580 ca         1 APJ       0.423900
     11 C11          7.0620    62.3450    46.5110 ca         1 APJ      -0.338000
     12 C12          6.7540    63.5810    47.0320 ca         1 APJ       0.173900
     13 C13          6.5610    60.5150    43.3180 cc         1 APJ       0.246000
     14 C14          5.8230    60.1370    41.2610 cd         1 APJ       0.305300
     15 C15          6.0130    61.1610    42.2210 cd         1 APJ      -0.223000
     16 C16          5.2610    60.2560    39.9050 cx         1 APJ      -0.158000
     17 C17          5.6200    61.4360    39.0300 cx         1 APJ      -0.127400
     18 C18          4.2360    61.3220    39.5910 cx         1 APJ      -0.127400
     19 C19          5.0500    65.2040    42.9180 ca         1 APJ       0.269000
     20 C20          6.0730    65.0430    41.9930 ca         1 APJ      -0.037000
     21 C21          5.7360    65.0160    40.6420 ca         1 APJ       0.072400
     22 C22          4.3880    65.1570    40.2430 ca         1 APJ      -0.084200
     23 C23          3.3600    65.3280    41.1630 ca         1 APJ      -0.104000
     24 C24          3.7120    65.3440    42.5040 ca         1 APJ      -0.107000
     25 C25          5.7230    64.9370    38.4980 cd         1 APJ       0.423700
     26 HN3          7.3560    60.2250    45.1750 hn         1 APJ       0.498000
     27 HN6          5.0150    66.0610    44.8290 hn         1 APJ       0.516000
     28 H11          7.5160    61.5660    47.1060 ha         1 APJ       0.130000
     29 H12          6.9680    63.8010    48.0730 h4         1 APJ       0.021100
     30 H15          5.7900    62.2060    42.1390 ha         1 APJ       0.172000
     31 H16          5.1370    59.3050    39.4010 hc         1 APJ       0.090700
     32 H17          6.2720    62.1850    39.4570 hc         1 APJ       0.074700
     33 H17A         5.7650    61.2520    37.9740 hc         1 APJ       0.074700
     34 H18          3.4280    61.0560    38.9220 hc         1 APJ       0.074700
     35 H18A         3.9610    61.9960    40.3910 hc         1 APJ       0.074700
     36 H20          7.1000    64.9450    42.3180 ha         1 APJ       0.144000
     37 H23          2.3290    65.4390    40.8520 ha         1 APJ       0.120000
     38 H24          2.9470    65.4620    43.2610 ha         1 APJ       0.119000
     39 H25          6.0090    64.8600    37.4610 h5         1 APJ       0.063800
     40 HN7          3.6320    65.1570    38.2400 hn         1 APJ       0.358000
     41 HN4          7.0220    58.4550    43.5560 hn         1 APJ       0.364000
@<TRIPOS>BOND
     1     1     9 ar  
     2     1    10 ar  
     3     2     9 ar  
     4     2    12 ar  
     5     3    10 1   
     6     3    13 1   
     7     3    26 1   
     8     4     5 1   
     9     4    13 1   
    10     4    41 1   
    11     5    14 2   
    12     6     9 1   
    13     6    19 1   
    14     6    27 1   
    15     7    22 1   
    16     7    25 1   
    17     7    40 1   
    18     8    21 1   
    19     8    25 2   
    20    10    11 ar  
    21    11    12 ar  
    22    11    28 1   
    23    12    29 1   
    24    13    15 2   
    25    14    15 1   
    26    14    16 1   
    27    15    30 1   
    28    16    17 1   
    29    16    18 1   
    30    16    31 1   
    31    17    18 1   
    32    17    32 1   
    33    17    33 1   
    34    18    34 1   
    35    18    35 1   
    36    19    20 ar  
    37    19    24 ar  
    38    20    21 ar  
    39    20    36 1   
    40    21    22 ar  
    41    22    23 ar  
    42    23    24 ar  
    43    23    37 1   
    44    24    38 1   
    45    25    39 1   
@<TRIPOS>SUBSTRUCTURE
     1 APJ         1 TEMP              0 ****  ****    0 ROOT
