@<TRIPOS>MOLECULE
APJ
   41    45     1     0     0
SMALL
No Charge or Current Charge


@<TRIPOS>ATOM
      1 N1           6.0520    63.0250    44.4690 nb         1 APJ      -0.283000
      2 N2           5.9490    64.4850    46.3690 nb         1 APJ      -0.270000
      3 N3           6.9340    60.8690    44.6300 nu         1 APJ      -0.933900
      4 N4           7.5620    59.4440    42.7260 na         1 APJ      -0.065200
      5 N5           7.1530    59.1280    41.4320 nc         1 APJ      -0.520800
      6 N6           5.1540    65.1770    44.3160 nu         1 APJ      -0.952900
      7 N7           4.2940    65.7220    38.8710 na         1 APJ      -0.323600
      8 N8           6.1470    64.5070    39.4980 nc         1 APJ      -0.573100
      9 C9           5.7600    64.1850    45.0740 ca         1 APJ       0.417900
     10 C10          6.6090    62.0760    45.2310 ca         1 APJ       0.423900
     11 C11          6.8720    62.2830    46.5870 ca         1 APJ      -0.338000
     12 C12          6.5150    63.5270    47.1280 ca         1 APJ       0.173900
     13 C13          6.7750    60.4140    43.3390 cc         1 APJ       0.246000
     14 C14          6.0950    59.9050    41.2840 cd         1 APJ       0.305300
     15 C15          5.8150    60.6890    42.4180 cd         1 APJ      -0.223000
     16 C16          5.2850    59.9050    40.0370 cx         1 APJ      -0.158000
     17 C17          5.7360    60.6980    38.8300 cx         1 APJ      -0.127400
     18 C18          4.5040    61.1250    39.5910 cx         1 APJ      -0.127400
     19 C19          4.9060    65.3300    42.9410 ca         1 APJ       0.269000
     20 C20          5.7530    64.7650    41.9570 ca         1 APJ      -0.037000
     21 C21          5.4490    64.9640    40.6030 ca         1 APJ       0.072400
     22 C22          4.3550    65.6890    40.2360 ca         1 APJ      -0.084200
     23 C23          3.4950    66.2800    41.1680 ca         1 APJ      -0.104000
     24 C24          3.7870    66.0980    42.5360 ca         1 APJ      -0.107000
     25 C25          5.4150    64.9810    38.4680 cd         1 APJ       0.423700
     26 HN3          7.5110    60.2700    45.2210 hn         1 APJ       0.498000
     27 HN6          4.7350    65.9020    44.9000 hn         1 APJ       0.516000
     28 H11          7.3260    61.5140    47.2040 ha         1 APJ       0.130000
     29 H12          6.6800    63.7600    48.1790 h4         1 APJ       0.021100
     30 H15          4.9890    61.3760    42.5370 ha         1 APJ       0.172000
     31 H16          4.8280    58.9380    39.8410 hc         1 APJ       0.090700
     32 H17          6.6270    61.3140    38.9280 hc         1 APJ       0.074700
     33 H17A         5.5980    60.2510    37.8480 hc         1 APJ       0.074700
     34 H18          3.5370    60.9630    39.1220 hc         1 APJ       0.074700
     35 H18A         4.5720    62.0330    40.1850 hc         1 APJ       0.074700
     36 H20          6.6370    64.2010    42.2300 ha         1 APJ       0.144000
     37 H23          2.6320    66.8610    40.8510 ha         1 APJ       0.120000
     38 H24          3.1350    66.5430    43.2830 ha         1 APJ       0.119000
     39 H25          5.6360    64.8320    37.4170 h5         1 APJ       0.063800
     40 HN7          3.6120    66.1700    38.2730 hn         1 APJ       0.358000
     41 HN4          8.3720    58.9960    43.1450 hn         1 APJ       0.364000
@<TRIPOS>BOND
     1     1     9 ar  
     2     1    10 ar  
     3     2     9 ar  
     4     2    12 ar  
     5     3    10 1   
     6     3    13 1   
     7     3    26 1   
     8     4     5 1   
     9     4    13 1   
    10     4    41 1   
    11     5    14 2   
    12     6     9 1   
    13     6    19 1   
    14     6    27 1   
    15     7    22 1   
    16     7    25 1   
    17     7    40 1   
    18     8    21 1   
    19     8    25 2   
    20    10    11 ar  
    21    11    12 ar  
    22    11    28 1   
    23    12    29 1   
    24    13    15 2   
    25    14    15 1   
    26    14    16 1   
    27    15    30 1   
    28    16    17 1   
    29    16    18 1   
    30    16    31 1   
    31    17    18 1   
    32    17    32 1   
    33    17    33 1   
    34    18    34 1   
    35    18    35 1   
    36    19    20 ar  
    37    19    24 ar  
    38    20    21 ar  
    39    20    36 1   
    40    21    22 ar  
    41    22    23 ar  
    42    23    24 ar  
    43    23    37 1   
    44    24    38 1   
    45    25    39 1   
@<TRIPOS>SUBSTRUCTURE
     1 APJ         1 TEMP              0 ****  ****    0 ROOT
