@<TRIPOS>MOLECULE
APK
   56    58     1     0     0
SMALL
bcc


@<TRIPOS>ATOM
      1 O           -5.0000    56.2320   133.8470 o          1 APK      -0.561100
      2 C           -5.9370    56.9840   133.7260 c          1 APK       0.558900
      3 CA          -7.3870    56.5690   133.8490 c3         1 APK       0.040500
      4 N           -7.5930    55.1700   134.1500 n8         1 APK      -0.878800
      5 CB          -8.0870    57.4740   134.8760 c3         1 APK      -0.072400
      6 CG          -8.3710    58.8840   134.3700 c3         1 APK      -0.070400
      7 CD          -9.0300    59.7560   135.4310 c3         1 APK      -0.079400
      8 CE          -9.4950    61.1140   134.9260 c3         1 APK       0.220800
      9 NZ          -8.4030    61.9000   134.3780 n7         1 APK      -0.919300
     10 P           -8.7450    63.3850   133.6200 p5         1 APK       1.346700
     11 O1P         -7.4460    64.1080   133.4290 o          1 APK      -0.814500
     12 O2P         -9.9450    64.0610   134.2110 o          1 APK      -0.814500
     13 O5          -9.2900    62.8510   132.1390 os         1 APK      -0.578200
     14 C5          -8.3800    62.2330   131.2550 c3         1 APK       0.199400
     15 C4          -9.2310    61.4960   130.2400 c5         1 APK       0.087100
     16 O4          -8.4060    60.7690   129.3310 os         1 APK      -0.406600
     17 C3         -10.1430    60.4410   130.8670 c5         1 APK       0.094100
     18 O3         -11.3760    60.9150   131.3220 oh         1 APK      -0.612800
     19 C2         -10.3370    59.4770   129.7010 c5         1 APK       0.109100
     20 O2         -11.2340    59.9850   128.7520 oh         1 APK      -0.598800
     21 C1          -8.9440    59.5090   129.0690 c5         1 APK       0.262800
     22 N9          -8.0680    58.4880   129.6420 na         1 APK      -0.271000
     23 C8          -6.9350    58.6590   130.3890 cc         1 APK       0.432700
     24 N7          -6.3580    57.5380   130.7140 nd         1 APK      -0.586100
     25 C7          -7.1480    56.5710   130.1520 ca         1 APK      -0.230200
     26 C9          -8.2120    57.1420   129.4720 ca         1 APK       0.444800
     27 N3          -9.1640    56.4930   128.8030 nb         1 APK      -0.737000
     28 C10         -8.9970    55.1830   128.8650 ca         1 APK       0.697900
     29 N1          -8.0460    54.4990   129.4960 nb         1 APK      -0.833000
     30 C6          -7.0980    55.1650   130.1640 ca         1 APK       0.769200
     31 N6          -6.1660    54.4790   130.8330 nv         1 APK      -0.959500
     32 HC          -5.7700    58.0580   133.5360 h4         1 APK       0.007200
     33 HA          -7.8440    56.7790   132.8730 h1         1 APK       0.089700
     34 H           -7.1310    54.9310   135.0190 hn         1 APK       0.342800
     35 H2          -7.1570    54.5970   133.4370 hn         1 APK       0.342800
     36 HB2         -7.4990    57.5140   135.8000 hc         1 APK       0.044700
     37 HB3         -9.0320    56.9900   135.1360 hc         1 APK       0.044700
     38 HG2         -9.0260    58.8200   133.4940 hc         1 APK       0.045700
     39 HG3         -7.4540    59.3680   134.0270 hc         1 APK       0.045700
     40 HD2         -8.3380    59.8940   136.2690 hc         1 APK       0.025200
     41 HD3         -9.9000    59.2340   135.8410 hc         1 APK       0.025200
     42 HE2        -10.0180    61.6310   135.7410 h1         1 APK       0.028200
     43 HE3        -10.2380    60.9580   134.1380 h1         1 APK       0.028200
     44 HZ          -7.6220    61.9640   135.0180 hn         1 APK       0.376800
     45 H5'1        -7.7300    61.5200   131.7790 h1         1 APK       0.034700
     46 H5'2        -7.7370    62.9700   130.7620 h1         1 APK       0.034700
     47 H4          -9.8350    62.2210   129.6800 h1         1 APK       0.078700
     48 H3          -9.5940    59.9190   131.6650 h1         1 APK       0.057700
     49 HO3        -11.2040    61.6880   131.8750 ho         1 APK       0.463000
     50 H6         -10.6180    58.4700   130.0310 h1         1 APK       0.077700
     51 HO2        -11.9700    60.3930   129.2240 ho         1 APK       0.434000
     52 H1          -8.9910    59.3300   127.9910 h2         1 APK       0.107700
     53 H8          -6.5740    59.6360   130.6660 h5         1 APK       0.088800
     54 HC2         -9.7310    54.5820   128.3380 h5         1 APK       0.040100
     55 HN61        -6.1140    53.4800   130.7330 hn         1 APK       0.447800
     56 HN62        -5.3820    54.9510   131.2510 hn         1 APK       0.447800
@<TRIPOS>BOND
     1     1     2 2   
     2     2     3 1   
     3     2    32 1   
     4     3     4 1   
     5     3     5 1   
     6     3    33 1   
     7     4    34 1   
     8     4    35 1   
     9     5     6 1   
    10     5    36 1   
    11     5    37 1   
    12     6     7 1   
    13     6    38 1   
    14     6    39 1   
    15     7     8 1   
    16     7    40 1   
    17     7    41 1   
    18     8     9 1   
    19     8    42 1   
    20     8    43 1   
    21     9    10 1   
    22     9    44 1   
    23    10    11 1   
    24    10    12 1   
    25    10    13 1   
    26    13    14 1   
    27    14    15 1   
    28    14    45 1   
    29    14    46 1   
    30    15    16 1   
    31    15    17 1   
    32    15    47 1   
    33    16    21 1   
    34    17    18 1   
    35    17    19 1   
    36    17    48 1   
    37    18    49 1   
    38    19    20 1   
    39    19    21 1   
    40    19    50 1   
    41    20    51 1   
    42    21    22 1   
    43    21    52 1   
    44    22    23 1   
    45    22    26 1   
    46    23    24 2   
    47    23    53 1   
    48    24    25 1   
    49    25    26 ar  
    50    25    30 ar  
    51    26    27 ar  
    52    27    28 ar  
    53    28    29 ar  
    54    28    54 1   
    55    29    30 ar  
    56    30    31 1   
    57    31    55 1   
    58    31    56 1   
@<TRIPOS>SUBSTRUCTURE
     1 APK         1 TEMP              0 ****  ****    0 ROOT
