@<TRIPOS>MOLECULE
APK
   56    58     1     0     0
SMALL
No Charge or Current Charge


@<TRIPOS>ATOM
      1 O           -3.3650    58.6500   134.8690 o          1 APK      -0.561100
      2 C           -4.3140    58.6170   134.0870 c          1 APK       0.558900
      3 CA          -5.0520    57.3010   133.6640 c3         1 APK       0.040500
      4 N           -4.3450    56.0250   134.0260 n8         1 APK      -0.878800
      5 CB          -6.5110    57.2520   134.1920 c3         1 APK      -0.072400
      6 CG          -7.3870    58.4590   133.7790 c3         1 APK      -0.070400
      7 CD          -8.8610    58.3180   134.2270 c3         1 APK      -0.079400
      8 CE          -9.7740    59.4780   133.7730 c3         1 APK       0.220800
      9 NZ          -9.3750    60.7420   134.3960 n7         1 APK      -0.919300
     10 P          -10.2510    62.0990   134.1440 p5         1 APK       1.346700
     11 O1P         -9.6010    63.2240   134.8670 o          1 APK      -0.814500
     12 O2P        -11.6310    61.8230   134.6210 o          1 APK      -0.814500
     13 O5         -10.1690    62.2070   132.5410 os         1 APK      -0.578200
     14 C5          -8.9100    62.4670   131.8960 c3         1 APK       0.199400
     15 C4          -8.8070    61.6660   130.5630 c5         1 APK       0.087100
     16 O4          -8.0180    60.4710   130.7250 os         1 APK      -0.406600
     17 C3         -10.1210    61.1060   129.9510 c5         1 APK       0.094100
     18 O3         -10.9900    62.1160   129.4180 oh         1 APK      -0.612800
     19 C2          -9.5230    60.1870   128.8410 c5         1 APK       0.109100
     20 O2          -9.1990    60.9680   127.6820 oh         1 APK      -0.598800
     21 C1          -8.2330    59.6330   129.5620 c5         1 APK       0.262800
     22 N9          -8.2300    58.2330   129.9830 na         1 APK      -0.271000
     23 C8          -7.1120    57.3980   129.9140 cc         1 APK       0.432700
     24 N7          -7.3750    56.1730   130.4070 nd         1 APK      -0.586100
     25 C7          -8.7240    56.2780   130.7830 ca         1 APK      -0.230200
     26 C9          -9.2520    57.5050   130.5230 ca         1 APK       0.444800
     27 N3         -10.5350    57.7980   130.7690 nb         1 APK      -0.737000
     28 C10        -11.2770    56.8130   131.3110 ca         1 APK       0.697900
     29 N1         -10.8540    55.5740   131.6190 nb         1 APK      -0.833000
     30 C6          -9.5830    55.3380   131.3540 ca         1 APK       0.769200
     31 N6          -9.2230    54.0920   131.6590 nv         1 APK      -0.959500
     32 HC          -4.6920    59.5490   133.6120 h4         1 APK       0.007200
     33 HA          -5.1080    57.3440   132.5670 h1         1 APK       0.089700
     34 H           -4.1880    56.0050   135.0400 hn         1 APK       0.342800
     35 H2          -3.3960    56.0370   133.6340 hn         1 APK       0.342800
     36 HB2         -6.4980    57.1810   135.2870 hc         1 APK       0.044700
     37 HB3         -6.9870    56.3340   133.8230 hc         1 APK       0.044700
     38 HG2         -7.3540    58.5730   132.6900 hc         1 APK       0.045700
     39 HG3         -6.9730    59.3780   134.2090 hc         1 APK       0.045700
     40 HD2         -8.9050    58.2270   135.3200 hc         1 APK       0.025200
     41 HD3         -9.2670    57.3850   133.8190 hc         1 APK       0.025200
     42 HE2        -10.8110    59.2310   134.0400 h1         1 APK       0.028200
     43 HE3         -9.7250    59.5610   132.6800 h1         1 APK       0.028200
     44 HZ          -9.4820    60.6450   135.3990 hn         1 APK       0.376800
     45 H5'1        -8.0570    62.2110   132.5390 h1         1 APK       0.034700
     46 H5'2        -8.8340    63.5370   131.6620 h1         1 APK       0.034700
     47 H4          -8.2870    62.3100   129.8390 h1         1 APK       0.078700
     48 H3         -10.6590    60.4990   130.6910 h1         1 APK       0.057700
     49 HO3        -11.3620    62.5960   130.1930 ho         1 APK       0.463000
     50 H6         -10.2200    59.3810   128.5740 h1         1 APK       0.077700
     51 HO2         -9.8430    61.7130   127.7030 ho         1 APK       0.434000
     52 H1          -7.3820    59.7400   128.8770 h2         1 APK       0.107700
     53 H8          -6.1610    57.7370   129.5180 h5         1 APK       0.088800
     54 HC2        -12.3230    57.0420   131.5170 h5         1 APK       0.040100
     55 HN61        -9.9890    53.4420   131.7480 hn         1 APK       0.447800
     56 HN62        -8.3770    53.7630   131.2140 hn         1 APK       0.447800
@<TRIPOS>BOND
     1     1     2 2   
     2     2     3 1   
     3     2    32 1   
     4     3     4 1   
     5     3     5 1   
     6     3    33 1   
     7     4    34 1   
     8     4    35 1   
     9     5     6 1   
    10     5    36 1   
    11     5    37 1   
    12     6     7 1   
    13     6    38 1   
    14     6    39 1   
    15     7     8 1   
    16     7    40 1   
    17     7    41 1   
    18     8     9 1   
    19     8    42 1   
    20     8    43 1   
    21     9    10 1   
    22     9    44 1   
    23    10    11 1   
    24    10    12 1   
    25    10    13 1   
    26    13    14 1   
    27    14    15 1   
    28    14    45 1   
    29    14    46 1   
    30    15    16 1   
    31    15    17 1   
    32    15    47 1   
    33    16    21 1   
    34    17    18 1   
    35    17    19 1   
    36    17    48 1   
    37    18    49 1   
    38    19    20 1   
    39    19    21 1   
    40    19    50 1   
    41    20    51 1   
    42    21    22 1   
    43    21    52 1   
    44    22    23 1   
    45    22    26 1   
    46    23    24 2   
    47    23    53 1   
    48    24    25 1   
    49    25    26 ar  
    50    25    30 ar  
    51    26    27 ar  
    52    27    28 ar  
    53    28    29 ar  
    54    28    54 1   
    55    29    30 ar  
    56    30    31 1   
    57    31    55 1   
    58    31    56 1   
@<TRIPOS>SUBSTRUCTURE
     1 APK         1 TEMP              0 ****  ****    0 ROOT
