@<TRIPOS>MOLECULE
APL
   33    33     1     0     0
SMALL
No Charge or Current Charge


@<TRIPOS>ATOM
      1 CN2          3.3270     0.1630     0.3160 c3         1 APL      -0.180100
      2 CN1          1.9530    -0.4670     0.1420 c          1 APL       0.608100
      3 ON1          1.7690    -1.6720     0.2150 o          1 APL      -0.576100
      4 N3           0.9400     0.4320    -0.1100 ns         1 APL      -0.517900
      5 C3          -0.4880     0.0870    -0.2720 c3         1 APL       0.044700
      6 C2          -1.0470     0.4960    -1.6920 c3         1 APL       0.366000
      7 C1          -0.3160    -0.2470    -2.8850 c3         1 APL       0.238000
      8 C4          -1.2850     0.6570     0.9390 c3         1 APL      -0.043100
      9 OY          -2.4420     0.2350    -1.7580 oh         1 APL      -0.625000
     10 OX          -0.9470     1.9070    -1.8520 oh         1 APL      -0.625000
     11 F11         -0.8910     0.0550    -4.0750 f          1 APL      -0.108000
     12 F12          0.9900     0.0990    -2.9790 f          1 APL      -0.108000
     13 F13         -0.3740    -1.5920    -2.7380 f          1 APL      -0.108000
     14 CP1         -0.6750     0.2740     2.2860 ca         1 APL      -0.089300
     15 CP2          0.0170     1.2310     3.0550 ca         1 APL      -0.105000
     16 CP3          0.5890     0.8710     4.2880 ca         1 APL      -0.105000
     17 CP4          0.4730    -0.4470     4.7590 ca         1 APL      -0.104000
     18 CP5         -0.2170    -1.4050     3.9970 ca         1 APL      -0.105000
     19 CP6         -0.7890    -1.0460     2.7650 ca         1 APL      -0.105000
     20 HC21         4.1100    -0.5800     0.5050 hc         1 APL       0.064033
     21 HC22         3.5530     0.7760    -0.5630 hc         1 APL       0.064033
     22 HC23         3.2760     0.9100     1.1160 hc         1 APL       0.064033
     23 HN3          1.2030     1.4090    -0.1650 hn         1 APL       0.308500
     24 H3          -0.5790    -1.0060    -0.2120 h1         1 APL       0.100700
     25 H41         -1.3430     1.7490     0.8520 hc         1 APL       0.066200
     26 H42         -2.3190     0.2930     0.9080 hc         1 APL       0.066200
     27 HY          -2.8330     0.6530    -0.9640 ho         1 APL       0.476000
     28 HX          -0.9870     2.0750    -2.8160 ho         1 APL       0.476000
     29 HP2          0.1170     2.2530     2.6970 ha         1 APL       0.107500
     30 HP3          1.1240     1.6140     4.8760 ha         1 APL       0.115000
     31 HP4          0.9160    -0.7260     5.7130 ha         1 APL       0.116000
     32 HP5         -0.3070    -2.4270     4.3610 ha         1 APL       0.115000
     33 HP6         -1.3170    -1.7950     2.1800 ha         1 APL       0.107500
@<TRIPOS>BOND
     1     1     2 1   
     2     1    20 1   
     3     1    21 1   
     4     1    22 1   
     5     2     3 2   
     6     2     4 1   
     7     4     5 1   
     8     4    23 1   
     9     5     6 1   
    10     5     8 1   
    11     5    24 1   
    12     6     7 1   
    13     6     9 1   
    14     6    10 1   
    15     7    11 1   
    16     7    12 1   
    17     7    13 1   
    18     8    14 1   
    19     8    25 1   
    20     8    26 1   
    21     9    27 1   
    22    10    28 1   
    23    14    15 ar  
    24    14    19 ar  
    25    15    16 ar  
    26    15    29 1   
    27    16    17 ar  
    28    16    30 1   
    29    17    18 ar  
    30    17    31 1   
    31    18    19 ar  
    32    18    32 1   
    33    19    33 1   
@<TRIPOS>SUBSTRUCTURE
     1 APL         1 TEMP              0 ****  ****    0 ROOT
