@<TRIPOS>MOLECULE
APL
   33    33     1     0     0
SMALL
bcc


@<TRIPOS>ATOM
      1 CN2          3.2750     0.3490     0.2460 c3         1 APL      -0.180100
      2 CN1          1.9620    -0.3170    -0.0770 c          1 APL       0.675100
      3 ON1          1.8440    -1.5200    -0.2250 o          1 APL      -0.576100
      4 N3           0.9150     0.5410    -0.1720 ns         1 APL      -0.584900
      5 C3          -0.4620     0.1200    -0.2360 c3         1 APL       0.044700
      6 C2          -1.0920     0.4480    -1.6150 c3         1 APL       0.319600
      7 C1          -0.4400    -0.3540    -2.7750 c3         1 APL       0.601900
      8 C4          -1.2500     0.7780     0.9080 c3         1 APL      -0.043100
      9 OY          -2.4480     0.1690    -1.6370 oh         1 APL      -0.562800
     10 OX          -1.0190     1.7960    -1.9190 oh         1 APL      -0.562800
     11 F11         -1.0670    -0.1010    -3.9260 f          1 APL      -0.229300
     12 F12          0.8490    -0.0540    -2.9620 f          1 APL      -0.229300
     13 F13         -0.5210    -1.6730    -2.5620 f          1 APL      -0.229300
     14 CP1         -0.6880     0.3670     2.2410 ca         1 APL      -0.089300
     15 CP2          0.1930     1.1900     2.9370 ca         1 APL      -0.123000
     16 CP3          0.7440     0.7820     4.1460 ca         1 APL      -0.123000
     17 CP4          0.4190    -0.4590     4.6760 ca         1 APL      -0.122000
     18 CP5         -0.4640    -1.2860     3.9920 ca         1 APL      -0.123000
     19 CP6         -1.0110    -0.8740     2.7860 ca         1 APL      -0.123000
     20 HC21         4.0970    -0.3490     0.1180 hc         1 APL       0.064033
     21 HC22         3.4500     1.2220    -0.3830 hc         1 APL       0.064033
     22 HC23         3.2690     0.6910     1.2830 hc         1 APL       0.064033
     23 HN3          1.0890     1.5020     0.0830 hn         1 APL       0.308500
     24 H3          -0.4800    -0.9640    -0.0940 h1         1 APL       0.100700
     25 H41         -1.2130     1.8650     0.8000 hc         1 APL       0.066200
     26 H42         -2.3000     0.4930     0.8470 hc         1 APL       0.066200
     27 HY          -2.6310    -0.6860    -1.2290 ho         1 APL       0.437000
     28 HX          -0.1090     2.1100    -1.8570 ho         1 APL       0.437000
     29 HP2          0.4470     2.1660     2.5390 ha         1 APL       0.125500
     30 HP3          1.4270     1.4360     4.6720 ha         1 APL       0.133000
     31 HP4          0.8470    -0.7770     5.6180 ha         1 APL       0.134000
     32 HP5         -0.7290    -2.2530     4.4000 ha         1 APL       0.133000
     33 HP6         -1.7020    -1.5260     2.2630 ha         1 APL       0.125500
@<TRIPOS>BOND
     1     1     2 1   
     2     1    20 1   
     3     1    21 1   
     4     1    22 1   
     5     2     3 2   
     6     2     4 1   
     7     4     5 1   
     8     4    23 1   
     9     5     6 1   
    10     5     8 1   
    11     5    24 1   
    12     6     7 1   
    13     6     9 1   
    14     6    10 1   
    15     7    11 1   
    16     7    12 1   
    17     7    13 1   
    18     8    14 1   
    19     8    25 1   
    20     8    26 1   
    21     9    27 1   
    22    10    28 1   
    23    14    15 ar  
    24    14    19 ar  
    25    15    16 ar  
    26    15    29 1   
    27    16    17 ar  
    28    16    30 1   
    29    17    18 ar  
    30    17    31 1   
    31    18    19 ar  
    32    18    32 1   
    33    19    33 1   
@<TRIPOS>SUBSTRUCTURE
     1 APL         1 TEMP              0 ****  ****    0 ROOT
