@<TRIPOS>MOLECULE
APM
   27    27     1     0     0
SMALL
bcc


@<TRIPOS>ATOM
      1 N           -4.8050     5.1840    22.6950 n8         1 APM      -0.873800
      2 CA          -4.0450     4.1690    21.9890 c3         1 APM       0.023500
      3 C           -2.6760     3.9040    22.6610 c          1 APM       0.932600
      4 O           -2.2650     4.7440    23.4830 o          1 APM      -0.833300
      5 CB          -3.8380     4.4610    20.4830 c3         1 APM      -0.060100
      6 CG          -3.1010     5.7410    20.2190 ca         1 APM      -0.047300
      7 CD1         -3.7960     6.9330    20.0330 ca         1 APM      -0.116000
      8 CD2         -1.7080     5.7760    20.1800 ca         1 APM      -0.076000
      9 CE1         -3.1310     8.1350    19.7950 ca         1 APM      -0.216900
     10 CE2         -1.0340     6.9670    19.9530 ca         1 APM      -0.136000
     11 CZ          -1.7390     8.1450    19.7560 ca         1 APM      -0.129000
     12 CF          -3.8880     9.3960    19.5550 ce         1 APM       0.674800
     13 NG1         -3.5470    10.2990    18.7160 n2         1 APM      -0.882100
     14 NG2         -5.0400     9.5220    20.2750 nv         1 APM      -0.922800
     15 OXT         -2.0890     2.8670    22.2890 o          1 APM      -0.833300
     16 H           -5.6030     5.4720    22.1420 hn         1 APM       0.319800
     17 H2          -4.2270     6.0050    22.8230 hn         1 APM       0.319800
     18 HA          -4.6150     3.2340    22.0320 h1         1 APM       0.046700
     19 HB2         -3.3060     3.6210    20.0340 hc         1 APM       0.037700
     20 HB3         -4.8190     4.5070    20.0030 hc         1 APM       0.037700
     21 HD1         -4.8790     6.9130    20.0380 ha         1 APM       0.127000
     22 HD2         -1.1480     4.8610    20.3260 ha         1 APM       0.162000
     23 HE2          0.0480     6.9790    19.9290 ha         1 APM       0.123000
     24 HZ          -1.2020     9.0710    19.5890 ha         1 APM       0.117000
     25 HG1         -2.7330    10.0070    18.1890 hn         1 APM       0.383400
     26 HG21        -5.4970    10.4190    20.2270 hn         1 APM       0.409300
     27 HG22        -5.0870     9.0820    21.1790 hn         1 APM       0.409300
@<TRIPOS>BOND
     1     1     2 1   
     2     1    16 1   
     3     1    17 1   
     4     2     3 1   
     5     2     5 1   
     6     2    18 1   
     7     3     4 1   
     8     3    15 1   
     9     5     6 1   
    10     5    19 1   
    11     5    20 1   
    12     6     7 ar  
    13     6     8 ar  
    14     7     9 ar  
    15     7    21 1   
    16     8    10 ar  
    17     8    22 1   
    18     9    11 ar  
    19     9    12 1   
    20    10    11 ar  
    21    10    23 1   
    22    11    24 1   
    23    12    13 2   
    24    12    14 1   
    25    13    25 1   
    26    14    26 1   
    27    14    27 1   
@<TRIPOS>SUBSTRUCTURE
     1 APM         1 TEMP              0 ****  ****    0 ROOT
