@<TRIPOS>MOLECULE
APM
   27    27     1     0     0
SMALL
No Charge or Current Charge


@<TRIPOS>ATOM
      1 N           -4.7430     5.2190    22.7700 n8         1 APM      -0.873800
      2 CA          -3.9900     4.1250    22.0460 c3         1 APM       0.023500
      3 C           -2.6130     3.6210    22.6700 c          1 APM       0.932600
      4 O           -1.9180     4.4070    23.3100 o          1 APM      -0.833300
      5 CB          -3.8330     4.4780    20.5410 c3         1 APM      -0.060100
      6 CG          -3.1050     5.7940    20.2670 ca         1 APM      -0.047300
      7 CD1         -3.8340     6.9770    20.0330 ca         1 APM      -0.116000
      8 CD2         -1.6990     5.8270    20.2100 ca         1 APM      -0.076000
      9 CE1         -3.1760     8.2040    19.7640 ca         1 APM      -0.216900
     10 CE2         -1.0330     7.0290    19.9270 ca         1 APM      -0.136000
     11 CZ          -1.7620     8.2070    19.6990 ca         1 APM      -0.129000
     12 CF          -3.9600     9.4480    19.4760 ce         1 APM       0.674800
     13 NG1         -3.4870    10.4250    18.8150 n2         1 APM      -0.882100
     14 NG2         -5.1700     9.5800    20.0550 nv         1 APM      -0.922800
     15 OXT         -2.3400     2.4270    22.5910 o          1 APM      -0.833300
     16 H           -5.5350     5.5210    22.1970 hn         1 APM       0.319800
     17 H2          -4.1360     6.0430    22.8290 hn         1 APM       0.319800
     18 HA          -4.6470     3.2450    22.0800 h1         1 APM       0.046700
     19 HB2         -3.3130     3.6530    20.0390 hc         1 APM       0.037700
     20 HB3         -4.8310     4.5080    20.0850 hc         1 APM       0.037700
     21 HD1         -4.9210     6.9340    20.0480 ha         1 APM       0.127000
     22 HD2         -1.1230     4.9190    20.3780 ha         1 APM       0.162000
     23 HE2          0.0540     7.0470    19.8820 ha         1 APM       0.123000
     24 HZ          -1.2180     9.1250    19.4870 ha         1 APM       0.117000
     25 HG1         -2.5780    10.1260    18.4390 hn         1 APM       0.383400
     26 HG21        -5.5200    10.5280    20.0890 hn         1 APM       0.409300
     27 HG22        -5.3400     8.9980    20.8640 hn         1 APM       0.409300
@<TRIPOS>BOND
     1     1     2 1   
     2     1    16 1   
     3     1    17 1   
     4     2     3 1   
     5     2     5 1   
     6     2    18 1   
     7     3     4 1   
     8     3    15 1   
     9     5     6 1   
    10     5    19 1   
    11     5    20 1   
    12     6     7 ar  
    13     6     8 ar  
    14     7     9 ar  
    15     7    21 1   
    16     8    10 ar  
    17     8    22 1   
    18     9    11 ar  
    19     9    12 1   
    20    10    11 ar  
    21    10    23 1   
    22    11    24 1   
    23    12    13 2   
    24    12    14 1   
    25    13    25 1   
    26    14    26 1   
    27    14    27 1   
@<TRIPOS>SUBSTRUCTURE
     1 APM         1 TEMP              0 ****  ****    0 ROOT
