@<TRIPOS>MOLECULE
APN
   36    37     1     0     0
SMALL
bcc


@<TRIPOS>ATOM
      1 N8          -0.2320     0.3910     1.1520 c3         1 APN      -0.267000
      2 N7          -1.0700    -0.4910     0.2300 c          1 APN       0.461200
      3 N7          -0.5350    -1.3470    -0.4570 o          1 APN      -0.388000
      4 N5          -3.0340     0.8070     0.9560 c3         1 APN      -0.294700
      5 N           -3.0040     2.1680     0.2190 c          1 APN       0.446500
      6 N1          -2.3410     2.2290    -0.8290 o          1 APN      -0.531000
      7 NXT         -3.6500     3.0720     0.7780 o          1 APN      -0.531000
      8 N4          -2.3970    -0.2730     0.2320 n3         1 APN      -0.259300
      9 N3          -3.2060    -0.9720    -0.7420 c3         1 APN      -0.060200
     10 N2          -3.6830    -2.2990    -0.1710 c3         1 APN      -0.142000
     11 N1          -4.5340    -3.0150    -1.1550 nz         1 APN      -0.056000
     12 N9           1.1440    -0.0100     1.1110 na         1 APN      -0.033500
     13 N1           1.7580    -0.9090     1.9340 cc         1 APN       0.118100
     14 N7           2.9860    -1.1720     1.5960 n2         1 APN      -0.480500
     15 N9           3.1910    -0.4160     0.4700 ca         1 APN      -0.064600
     16 N6           4.2970    -0.2460    -0.3820 ca         1 APN       0.540300
     17 N6           5.4550    -0.8850    -0.2000 nv         1 APN      -0.475500
     18 N2           4.1640     0.5830    -1.4240 nb         1 APN      -0.645600
     19 N10          3.0040     1.2090    -1.6110 ca         1 APN       0.381600
     20 N3           1.9020     1.1330    -0.8850 nb         1 APN      -0.524600
     21 N4           2.0510     0.3050     0.1460 ca         1 APN       0.248800
     22 N8'1        -0.3130     1.4320     0.8400 hn         1 APN       0.146500
     23 N8'2        -0.5780     0.3310     2.1840 hn         1 APN       0.146500
     24 N5'1        -2.5860     0.9250     1.9450 hn         1 APN       0.076500
     25 N5'2        -4.0690     0.5190     1.1510 hn         1 APN       0.076500
     26 N3'1        -4.0600    -0.3440    -1.0000 hn         1 APN       0.120500
     27 N3'2        -2.6400    -1.1370    -1.6590 hn         1 APN       0.120500
     28 N2'1        -2.8480    -2.9530     0.0620 hn         1 APN       0.143500
     29 N2'2        -4.2840    -2.1570     0.7240 hn         1 APN       0.143500
     30 N1'1        -4.0390    -3.2030    -2.0260 hn         1 APN       0.244000
     31 N1'2        -4.8410    -3.9150    -0.7890 hn         1 APN       0.244000
     32 N1'3        -5.3750    -2.4900    -1.3920 hn         1 APN       0.244000
     33 N8           1.2410    -1.3280     2.7850 hn         1 APN       0.186000
     34 NN61         5.6120    -1.4450     0.6190 hn         1 APN       0.241500
     35 NN62         6.2440    -0.6720    -0.7860 hn         1 APN       0.241500
     36 N2           2.9640     1.8640    -2.4740 hn         1 APN       0.185000
@<TRIPOS>BOND
     1     1     2 1   
     2     1    12 1   
     3     1    22 1   
     4     1    23 1   
     5     2     3 2   
     6     2     8 1   
     7     4     5 1   
     8     4     8 1   
     9     4    24 1   
    10     4    25 1   
    11     5     6 1   
    12     5     7 1   
    13     8     9 1   
    14     9    10 1   
    15     9    26 1   
    16     9    27 1   
    17    10    11 1   
    18    10    28 1   
    19    10    29 1   
    20    11    30 1   
    21    11    31 1   
    22    11    32 1   
    23    12    13 1   
    24    12    21 1   
    25    13    14 2   
    26    13    33 1   
    27    14    15 1   
    28    15    16 ar  
    29    15    21 ar  
    30    16    17 1   
    31    16    18 ar  
    32    17    34 1   
    33    17    35 1   
    34    18    19 ar  
    35    19    20 ar  
    36    19    36 1   
    37    20    21 ar  
@<TRIPOS>SUBSTRUCTURE
     1 APN         1 TEMP              0 ****  ****    0 ROOT
