@<TRIPOS>MOLECULE
APN
   36    37     1     0     0
SMALL
No Charge or Current Charge


@<TRIPOS>ATOM
      1 C8          -0.0970     0.0980     1.0240 c3         1 APN       0.008600
      2 C7          -1.0490    -0.7430     0.1420 c          1 APN       0.599100
      3 O7          -0.6430    -1.7280    -0.4680 o          1 APN      -0.627100
      4 C5          -2.9740     0.8230     0.7780 c3         1 APN      -0.080000
      5 C           -2.9880     2.1270    -0.0560 c          1 APN       0.698000
      6 O1          -2.0020     2.8470    -0.0120 o          1 APN      -0.691000
      7 OXT         -3.9740     2.3640    -0.7380 o          1 APN      -0.691000
      8 N4          -2.4180    -0.3710     0.0680 n          1 APN      -0.361800
      9 C3          -3.3640    -1.1350    -0.7810 c3         1 APN       0.086000
     10 C2          -4.1390    -2.2010     0.0190 c3         1 APN       0.066600
     11 N1          -5.1270    -2.9710    -0.8340 nz         1 APN      -0.966000
     12 N9           1.3300    -0.3040     0.9680 na         1 APN      -0.264300
     13 C1           1.9620    -1.3490     1.6460 cc         1 APN       0.400700
     14 N7           3.2640    -1.4200     1.3090 nd         1 APN      -0.555100
     15 C9           3.4150    -0.3820     0.3770 ca         1 APN      -0.104600
     16 C6           4.5640     0.0290    -0.3300 ca         1 APN       0.444900
     17 N6           5.7710    -0.5790    -0.1850 nv         1 APN      -1.069900
     18 N2           4.5210     1.0620    -1.1870 nb         1 APN      -0.306000
     19 C10          3.3170     1.6690    -1.3300 ca         1 APN       0.178900
     20 N3           2.1640     1.3430    -0.6970 nb         1 APN      -0.185000
     21 C4           2.2460     0.3050     0.1590 ca         1 APN       0.142500
     22 H8'1        -0.1900     1.1450     0.7150 h1         1 APN       0.107200
     23 H8'2        -0.4510     0.0200     2.0580 h1         1 APN       0.107200
     24 H5'1        -2.4260     1.0100     1.7090 h1         1 APN       0.037200
     25 H5'2        -4.0100     0.6060     1.0680 h1         1 APN       0.037200
     26 H3'1        -4.0810    -0.4370    -1.2300 h1         1 APN       0.081200
     27 H3'2        -2.8260    -1.6170    -1.6080 h1         1 APN       0.081200
     28 H2'1        -3.4230    -2.9030     0.4590 hx         1 APN       0.104200
     29 H2'2        -4.6780    -1.7080     0.8350 hx         1 APN       0.104200
     30 H1'1        -4.6850    -3.4840    -1.6140 hn         1 APN       0.504000
     31 H1'2        -5.6480    -3.6860    -0.3010 hn         1 APN       0.504000
     32 H1'3        -5.8520    -2.3740    -1.2660 hn         1 APN       0.504000
     33 H8           1.4390    -1.9930     2.3440 h5         1 APN       0.056800
     34 HN61         5.8730    -1.2060     0.6100 hn         1 APN       0.501500
     35 HN62         6.6040    -0.0720    -0.4750 hn         1 APN       0.501500
     36 H2           3.2710     2.5060    -2.0240 h5         1 APN       0.048100
@<TRIPOS>BOND
     1     1     2 1   
     2     1    12 1   
     3     1    22 1   
     4     1    23 1   
     5     2     3 2   
     6     2     8 1   
     7     4     5 1   
     8     4     8 1   
     9     4    24 1   
    10     4    25 1   
    11     5     6 1   
    12     5     7 1   
    13     8     9 1   
    14     9    10 1   
    15     9    26 1   
    16     9    27 1   
    17    10    11 1   
    18    10    28 1   
    19    10    29 1   
    20    11    30 1   
    21    11    31 1   
    22    11    32 1   
    23    12    13 1   
    24    12    21 1   
    25    13    14 2   
    26    13    33 1   
    27    14    15 1   
    28    15    16 ar  
    29    15    21 ar  
    30    16    17 1   
    31    16    18 ar  
    32    17    34 1   
    33    17    35 1   
    34    18    19 ar  
    35    19    20 ar  
    36    19    36 1   
    37    20    21 ar  
@<TRIPOS>SUBSTRUCTURE
     1 APN         1 TEMP              0 ****  ****    0 ROOT
