@<TRIPOS>MOLECULE
APO
   15    14     1     0     0
SMALL
bcc


@<TRIPOS>ATOM
      1 C1           0.1630     0.4750    -1.1070 c3         1 APO       0.077500
      2 N2           1.6170     0.5840    -1.0630 n8         1 APO      -0.937800
      3 C3          -0.3150     0.0620    -2.5100 c          1 APO       0.919600
      4 O4           0.4590    -0.6360    -3.2020 o          1 APO      -0.911300
      5 O5          -1.4690     0.4140    -2.8390 o          1 APO      -0.911300
      6 C6          -0.4080    -0.5080    -0.0710 c3         1 APO      -0.268600
      7 P7          -0.1070    -0.0370     1.7050 p5         1 APO       1.168700
      8 O8          -0.6960    -1.1920     2.5280 o          1 APO      -0.957500
      9 O9           1.4250     0.0890     1.8550 o          1 APO      -0.957500
     10 O10         -0.8410     1.2970     1.8990 o          1 APO      -0.957500
     11 HC1         -0.2660     1.4580    -0.8820 h1         1 APO       0.044700
     12 HN21         1.8920     0.4630    -0.0900 hn         1 APO       0.340300
     13 HN22         1.9850    -0.2110    -1.5730 hn         1 APO       0.340300
     14 HC61        -1.4910    -0.5980    -0.2190 hc         1 APO       0.005200
     15 HC62         0.0070    -1.5050    -0.2710 hc         1 APO       0.005200
@<TRIPOS>BOND
     1     1     2 1   
     2     1     3 1   
     3     1     6 1   
     4     1    11 1   
     5     2    12 1   
     6     2    13 1   
     7     3     4 1   
     8     3     5 1   
     9     6     7 1   
    10     6    14 1   
    11     6    15 1   
    12     7     8 1   
    13     7     9 1   
    14     7    10 1   
@<TRIPOS>SUBSTRUCTURE
     1 APO         1 TEMP              0 ****  ****    0 ROOT
