@<TRIPOS>MOLECULE
APO
   15    14     1     0     0
SMALL
No Charge or Current Charge


@<TRIPOS>ATOM
      1 C1           0.1500     0.4370    -1.1510 c3         1 APO       0.077500
      2 N2           1.6330     0.5430    -1.0350 n8         1 APO      -1.048200
      3 C3          -0.4460     0.1210    -2.6080 c          1 APO       0.709000
      4 O4          -0.0050    -0.8320    -3.2420 o          1 APO      -0.806000
      5 O5          -1.2630     0.8990    -3.0880 o          1 APO      -0.806000
      6 C6          -0.2920    -0.5830    -0.0760 c3         1 APO      -0.426400
      7 P7          -0.1090    -0.0240     1.6700 p5         1 APO       1.326500
      8 O8          -0.5230    -1.1440     2.5620 o          1 APO      -0.957500
      9 O9           1.3220     0.3230     1.9080 o          1 APO      -0.957500
     10 O10         -0.9850     1.1610     1.8980 o          1 APO      -0.957500
     11 HC1         -0.2650     1.4130    -0.8620 h1         1 APO       0.044700
     12 HN21         1.8240     0.5120    -0.0180 hn         1 APO       0.395500
     13 HN22         2.0310    -0.3390    -1.3740 hn         1 APO       0.395500
     14 HC61        -1.3570    -0.7990    -0.2170 hc         1 APO       0.005200
     15 HC62         0.2390    -1.5330    -0.2060 hc         1 APO       0.005200
@<TRIPOS>BOND
     1     1     2 1   
     2     1     3 1   
     3     1     6 1   
     4     1    11 1   
     5     2    12 1   
     6     2    13 1   
     7     3     4 1   
     8     3     5 1   
     9     6     7 1   
    10     6    14 1   
    11     6    15 1   
    12     7     8 1   
    13     7     9 1   
    14     7    10 1   
@<TRIPOS>SUBSTRUCTURE
     1 APO         1 TEMP              0 ****  ****    0 ROOT
