@<TRIPOS>MOLECULE
APP
   24    24     1     0     0
SMALL
No Charge or Current Charge


@<TRIPOS>ATOM
      1 N1           0.6210     0.0600    -0.4360 n          1 APP      -0.360800
      2 C            1.7310     0.3700     0.3960 c          1 APP       0.591100
      3 O            1.5910     0.8420     1.5170 o          1 APP      -0.574100
      4 CM           3.1430     0.0560    -0.1170 c3         1 APP      -0.175100
      5 C2          -0.7940     0.2000     0.1090 c6         1 APP      -0.037300
      6 C1          -1.0550    -0.4730     1.5040 c          1 APP       0.738000
      7 O1          -0.4960    -1.5400     1.7340 o          1 APP      -0.721500
      8 O2          -1.4640     0.2480     2.4050 o          1 APP      -0.721500
      9 C3          -1.9270    -0.2610    -0.8520 c6         1 APP      -0.077400
     10 C4          -1.7170     0.2190    -2.2930 c6         1 APP      -0.076400
     11 C5          -0.3770    -0.3300    -2.7910 c6         1 APP      -0.078400
     12 C6           0.7890     0.1810    -1.9210 c6         1 APP       0.105000
     13 HM1          3.9090     0.1790     0.6570 hc         1 APP       0.040367
     14 HM2          3.1620    -0.9500    -0.5510 hc         1 APP       0.040367
     15 HM3          3.3640     0.6980    -0.9770 hc         1 APP       0.040367
     16 H2          -0.9450     1.2780     0.2660 h1         1 APP       0.027700
     17 H31         -2.8960     0.1000    -0.4790 hc         1 APP       0.052200
     18 H32         -1.9880    -1.3590    -0.8440 hc         1 APP       0.052200
     19 H41         -1.7240     1.3170    -2.3380 hc         1 APP       0.021700
     20 H42         -2.5340    -0.1380    -2.9340 hc         1 APP       0.021700
     21 H51         -0.2140    -0.0370    -3.8360 hc         1 APP       0.032200
     22 H52         -0.3950    -1.4290    -2.7730 hc         1 APP       0.032200
     23 H61          0.9560     1.2430    -2.1510 h1         1 APP       0.013200
     24 H62          1.6910    -0.3600    -2.2370 h1         1 APP       0.013200
@<TRIPOS>BOND
     1     1     2 1   
     2     1     5 1   
     3     1    12 1   
     4     2     3 2   
     5     2     4 1   
     6     4    13 1   
     7     4    14 1   
     8     4    15 1   
     9     5     6 1   
    10     5     9 1   
    11     5    16 1   
    12     6     7 1   
    13     6     8 1   
    14     9    10 1   
    15     9    17 1   
    16     9    18 1   
    17    10    11 1   
    18    10    19 1   
    19    10    20 1   
    20    11    12 1   
    21    11    21 1   
    22    11    22 1   
    23    12    23 1   
    24    12    24 1   
@<TRIPOS>SUBSTRUCTURE
     1 APP         1 TEMP              0 ****  ****    0 ROOT
