@<TRIPOS>MOLECULE
APP
   24    24     1     0     0
SMALL
abcg2


@<TRIPOS>ATOM
      1 N1           0.5910     0.0510    -0.4580 n          1 APP      -0.360800
      2 C            1.6520     0.2560     0.3650 c          1 APP       0.591100
      3 O            1.5140     0.5850     1.5360 o          1 APP      -0.574100
      4 CM           3.0390     0.0620    -0.2070 c3         1 APP      -0.175100
      5 C2          -0.7330     0.3100     0.1090 c6         1 APP      -0.037300
      6 C1          -0.9480    -0.4010     1.4700 c          1 APP       0.738000
      7 O1          -0.5400    -1.5730     1.5610 o          1 APP      -0.721500
      8 O2          -1.6130     0.2320     2.3120 o          1 APP      -0.721500
      9 C3          -1.8560    -0.1980    -0.8020 c6         1 APP      -0.077400
     10 C4          -1.6770     0.1740    -2.2620 c6         1 APP      -0.076400
     11 C5          -0.3410    -0.3730    -2.7280 c6         1 APP      -0.078400
     12 C6           0.7870     0.2080    -1.9000 c6         1 APP       0.105000
     13 HM1          3.7620     0.1000     0.6040 hc         1 APP       0.040367
     14 HM2          3.1420    -0.8930    -0.7230 hc         1 APP       0.040367
     15 HM3          3.2900     0.8480    -0.9210 hc         1 APP       0.040367
     16 H2          -0.8610     1.3920     0.2430 h1         1 APP       0.027700
     17 H31         -2.7970     0.1920    -0.4090 hc         1 APP       0.052200
     18 H32         -1.9060    -1.2880    -0.7260 hc         1 APP       0.052200
     19 H41         -1.7010     1.2620    -2.3890 hc         1 APP       0.021700
     20 H42         -2.4950    -0.2340    -2.8590 hc         1 APP       0.021700
     21 H51         -0.1500    -0.1330    -3.7760 hc         1 APP       0.032200
     22 H52         -0.3400    -1.4640    -2.6450 hc         1 APP       0.032200
     23 H61          0.8910     1.2730    -2.1460 h1         1 APP       0.013200
     24 H62          1.7190    -0.2730    -2.1910 h1         1 APP       0.013200
@<TRIPOS>BOND
     1     1     2 1   
     2     1     5 1   
     3     1    12 1   
     4     2     3 2   
     5     2     4 1   
     6     4    13 1   
     7     4    14 1   
     8     4    15 1   
     9     5     6 1   
    10     5     9 1   
    11     5    16 1   
    12     6     7 1   
    13     6     8 1   
    14     9    10 1   
    15     9    17 1   
    16     9    18 1   
    17    10    11 1   
    18    10    19 1   
    19    10    20 1   
    20    11    12 1   
    21    11    21 1   
    22    11    22 1   
    23    12    23 1   
    24    12    24 1   
@<TRIPOS>SUBSTRUCTURE
     1 APP         1 TEMP              0 ****  ****    0 ROOT
