@<TRIPOS>MOLECULE
APQ
   34    35     1     0     0
SMALL
No Charge or Current Charge


@<TRIPOS>ATOM
      1 C10          0.0030    -0.2720     4.1570 c3         1 APQ       0.064600
      2 C11          0.1240     0.7250     5.3250 c3         1 APQ      -0.065400
      3 C12         -0.3190     0.1260     6.6740 c3         1 APQ      -0.089100
      4 S1           0.5500     0.5150     2.5760 ss         1 APQ      -0.444000
      5 C9           0.2910    -0.9040     1.4120 c3         1 APQ       0.129900
      6 C2           0.6880    -0.5220    -0.0150 ca         1 APQ      -0.049300
      7 C3          -0.2770    -0.3080    -1.0370 ca         1 APQ       0.204400
      8 N3          -1.6470    -0.4560    -0.7290 nc         1 APQ      -0.694100
      9 C8          -2.4240    -0.2300    -1.7580 cd         1 APQ       0.705800
     10 N1          -2.0880     0.1080    -3.0090 ns         1 APQ      -0.449400
     11 C7          -0.8130     0.2750    -3.4070 c          1 APQ       0.587600
     12 O1          -0.5300     0.5890    -4.5530 o          1 APQ      -0.543000
     13 C4           0.1860     0.0440    -2.3290 ca         1 APQ      -0.189600
     14 C5           1.5670     0.1770    -2.5930 ca         1 APQ      -0.099000
     15 C6           2.5070    -0.0380    -1.5780 ca         1 APQ       0.248000
     16 N4           3.8490     0.0910    -1.8370 nv         1 APQ      -1.061000
     17 C1           2.0640    -0.3860    -0.2970 ca         1 APQ      -0.107000
     18 N2          -3.7160    -0.3650    -1.5120 nv         1 APQ      -1.034200
     19 H101         0.6270    -1.1540     4.3550 h1         1 APQ       0.053700
     20 H102        -1.0400    -0.5990     4.0530 h1         1 APQ       0.053700
     21 H111        -0.4850     1.6110     5.1080 hc         1 APQ       0.051700
     22 H112         1.1650     1.0620     5.4060 hc         1 APQ       0.051700
     23 H121        -0.2160     0.8690     7.4740 hc         1 APQ       0.033033
     24 H122        -1.3680    -0.1900     6.6320 hc         1 APQ       0.033033
     25 H123         0.2960    -0.7440     6.9320 hc         1 APQ       0.033033
     26 H91          0.9090    -1.7480     1.7420 h1         1 APQ       0.069200
     27 H92         -0.7560    -1.2270     1.4680 h1         1 APQ       0.069200
     28 HN11        -2.8010     0.2730    -3.6990 hn         1 APQ       0.324500
     29 H51          1.9080     0.4470    -3.5890 ha         1 APQ       0.134000
     30 HN41         4.1700     0.4420    -2.7380 hn         1 APQ       0.443000
     31 HN42         4.5280     0.0360    -1.0790 hn         1 APQ       0.443000
     32 H11          2.7910    -0.5520     0.4940 ha         1 APQ       0.118000
     33 HN21        -3.9110    -0.7960    -0.6170 hn         1 APQ       0.488000
     34 HN22        -4.3090    -0.6640    -2.2760 hn         1 APQ       0.488000
@<TRIPOS>BOND
     1     1     2 1   
     2     1     4 1   
     3     1    19 1   
     4     1    20 1   
     5     2     3 1   
     6     2    21 1   
     7     2    22 1   
     8     3    23 1   
     9     3    24 1   
    10     3    25 1   
    11     4     5 1   
    12     5     6 1   
    13     5    26 1   
    14     5    27 1   
    15     6     7 ar  
    16     6    17 ar  
    17     7     8 1   
    18     7    13 ar  
    19     8     9 2   
    20     9    10 1   
    21     9    18 1   
    22    10    11 1   
    23    10    28 1   
    24    11    12 2   
    25    11    13 1   
    26    13    14 ar  
    27    14    15 ar  
    28    14    29 1   
    29    15    16 1   
    30    15    17 ar  
    31    16    30 1   
    32    16    31 1   
    33    17    32 1   
    34    18    33 1   
    35    18    34 1   
@<TRIPOS>SUBSTRUCTURE
     1 APQ         1 TEMP              0 ****  ****    0 ROOT
