@<TRIPOS>MOLECULE
APQ
   34    35     1     0     0
SMALL
abcg2


@<TRIPOS>ATOM
      1 C10         -0.0980    -0.3030     3.9910 c3         1 APQ       0.064600
      2 C11         -0.1170     0.7630     5.0770 c3         1 APQ      -0.065400
      3 C12         -0.5830     0.1990     6.4130 c3         1 APQ      -0.089100
      4 S1           0.4080     0.4300     2.4080 ss         1 APQ      -0.444000
      5 C9           0.5680    -1.0710     1.3890 c3         1 APQ       0.129900
      6 C2           0.9020    -0.6610    -0.0100 ca         1 APQ      -0.049300
      7 C3          -0.1280    -0.3620    -0.9290 ca         1 APQ       0.204400
      8 N3          -1.4330    -0.4910    -0.5340 nc         1 APQ      -0.694100
      9 C8          -2.3530    -0.2080    -1.3950 cd         1 APQ       0.705800
     10 N1          -2.0760     0.2070    -2.6710 ns         1 APQ      -0.449400
     11 C7          -0.8060     0.3580    -3.1750 c          1 APQ       0.587600
     12 O1          -0.6310     0.7250    -4.3260 o          1 APQ      -0.543000
     13 C4           0.2460     0.0470    -2.2170 ca         1 APQ      -0.189600
     14 C5           1.5860     0.1680    -2.5930 ca         1 APQ      -0.099000
     15 C6           2.5940    -0.1250    -1.6900 ca         1 APQ       0.248000
     16 N4           3.9310    -0.0760    -2.0440 nv         1 APQ      -1.061000
     17 C1           2.2190    -0.5370    -0.3970 ca         1 APQ      -0.107000
     18 N2          -3.6610    -0.2610    -1.0580 nv         1 APQ      -1.034200
     19 H101         0.6030    -1.0990     4.2540 h1         1 APQ       0.053700
     20 H102        -1.0870    -0.7540     3.8800 h1         1 APQ       0.053700
     21 H111        -0.7750     1.5820     4.7760 hc         1 APQ       0.051700
     22 H112         0.8830     1.1890     5.1840 hc         1 APQ       0.051700
     23 H121        -0.5710     0.9660     7.1870 hc         1 APQ       0.033033
     24 H122        -1.6000    -0.1900     6.3460 hc         1 APQ       0.033033
     25 H123         0.0620    -0.6170     6.7450 hc         1 APQ       0.033033
     26 H91          1.3560    -1.7000     1.8070 h1         1 APQ       0.069200
     27 H92         -0.3710    -1.6220     1.4210 h1         1 APQ       0.069200
     28 HN11        -2.8400     0.4210    -3.3000 hn         1 APQ       0.324500
     29 H51          1.8300     0.4930    -3.5970 ha         1 APQ       0.134000
     30 HN41         4.1360     0.5090    -2.8390 hn         1 APQ       0.443000
     31 HN42         4.5650     0.1180    -1.2850 hn         1 APQ       0.443000
     32 H11          2.9980    -0.7680     0.3230 ha         1 APQ       0.118000
     33 HN21        -3.8760    -0.7470    -0.2030 hn         1 APQ       0.488000
     34 HN22        -4.3580    -0.3460    -1.7800 hn         1 APQ       0.488000
@<TRIPOS>BOND
     1     1     2 1   
     2     1     4 1   
     3     1    19 1   
     4     1    20 1   
     5     2     3 1   
     6     2    21 1   
     7     2    22 1   
     8     3    23 1   
     9     3    24 1   
    10     3    25 1   
    11     4     5 1   
    12     5     6 1   
    13     5    26 1   
    14     5    27 1   
    15     6     7 ar  
    16     6    17 ar  
    17     7     8 1   
    18     7    13 ar  
    19     8     9 2   
    20     9    10 1   
    21     9    18 1   
    22    10    11 1   
    23    10    28 1   
    24    11    12 2   
    25    11    13 1   
    26    13    14 ar  
    27    14    15 ar  
    28    14    29 1   
    29    15    16 1   
    30    15    17 ar  
    31    16    30 1   
    32    16    31 1   
    33    17    32 1   
    34    18    33 1   
    35    18    34 1   
@<TRIPOS>SUBSTRUCTURE
     1 APQ         1 TEMP              0 ****  ****    0 ROOT
