@<TRIPOS>MOLECULE
APR
   57    60     1     0     0
SMALL
abcg2


@<TRIPOS>ATOM
      1 N1          58.6920    22.6490     4.1300 nb         1 APR      -0.330000
      2 C2          59.4270    21.6640     3.6200 ca         1 APR       0.141900
      3 N3          59.5350    20.4160     4.0420 nb         1 APR      -0.215000
      4 C4          58.7790    20.1940     5.1160 ca         1 APR       0.084500
      5 C5          57.9590    21.1110     5.7540 ca         1 APR      -0.077600
      6 C6          57.9390    22.4090     5.2090 ca         1 APR       0.432900
      7 N6          57.2050    23.3980     5.7230 nv         1 APR      -1.082900
      8 N7          57.3150    20.5300     6.8130 nc         1 APR      -0.575100
      9 C8          57.7340    19.2960     6.8170 cd         1 APR       0.478700
     10 N9          58.6330    19.0330     5.8170 na         1 APR      -0.309300
     11 C1          59.2740    17.7670     5.4750 c5         1 APR       0.318300
     12 C7          60.7770    17.7980     5.7500 c5         1 APR       0.128300
     13 O2          61.3700    16.9000     4.8520 oh         1 APR      -0.714000
     14 C3          60.8240    17.2800     7.1860 c5         1 APR       0.087300
     15 O3          62.0940    16.7800     7.4840 oh         1 APR      -0.736000
     16 O4          58.7350    16.7520     6.2620 os         1 APR      -0.388000
     17 C9          59.7050    16.2330     7.1750 c5         1 APR       0.129300
     18 C10         59.0890    16.0110     8.5360 c3         1 APR       0.245600
     19 O5          58.0140    15.1120     8.4250 os         1 APR      -0.580400
     20 PA          57.2330    14.5260     9.7490 p5         1 APR       1.469800
     21 O1A         58.1640    13.6830    10.5620 o          1 APR      -0.842500
     22 O2A         55.9380    13.9910     9.2330 o          1 APR      -0.842500
     23 O3A         57.0030    15.8850    10.6520 os         1 APR      -0.728800
     24 PB          56.1020    17.2270    10.3440 p5         1 APR       1.466800
     25 O1B         55.9980    17.4600     8.8690 o          1 APR      -0.856500
     26 O2B         56.6150    18.2720    11.2830 o          1 APR      -0.856500
     27 O5D         54.6100    16.7270    10.8090 os         1 APR      -0.563400
     28 C5D         54.1610    16.9060    12.1350 c3         1 APR       0.229600
     29 O4D         52.3570    18.3730    11.3920 os         1 APR      -0.446000
     30 C1D         51.1320    18.1040    12.0310 c5         1 APR       0.394300
     31 O2D         50.4460    18.1570    14.3280 oh         1 APR      -0.706000
     32 C2D         51.4770    17.7520    13.4780 c5         1 APR       0.137300
     33 O3D         52.6120    19.7790    13.9910 oh         1 APR      -0.722000
     34 C3D         52.8330    18.4260    13.6820 c5         1 APR       0.099300
     35 C4D         53.4470    18.2410    12.2950 c5         1 APR       0.102300
     36 H2          60.0120    21.9250     2.7440 h5         1 APR       0.021100
     37 H61         56.6280    23.2500     6.5320 hn         1 APR       0.497500
     38 H62         57.2160    24.3100     5.3030 hn         1 APR       0.497500
     39 H8          57.3970    18.5390     7.5110 h5         1 APR       0.165800
     40 H'1         59.0750    17.5800     4.4150 h2         1 APR       0.098700
     41 H'2         61.1930    18.8080     5.6560 h1         1 APR       0.061700
     42 HO'2        62.2680    16.7180     5.1490 ho         1 APR       0.514000
     43 H'3         60.5460    18.1010     7.8620 h1         1 APR       0.059700
     44 HO'3        62.1940    16.7070     8.4380 ho         1 APR       0.520000
     45 H'4         60.0930    15.2840     6.7830 h1         1 APR       0.069700
     46 H5'1        59.8780    15.6290     9.1980 h1         1 APR       0.017700
     47 H5'2        58.7630    16.9740     8.9410 h1         1 APR       0.017700
     48 H5R1        53.4870    16.0740    12.3590 h1         1 APR       0.022200
     49 H5R2        54.9790    16.8590    12.8610 h1         1 APR       0.022200
     50 HOR2        50.6140    17.8050    15.2070 ho         1 APR       0.494000
     51 HOR3        53.4670    20.2190    14.0450 ho         1 APR       0.505000
     52 HR'3        53.4280    17.9290    14.4600 h1         1 APR       0.044700
     53 HR'4        54.1670    19.0350    12.0760 h1         1 APR       0.105700
     54 HR'1        50.5160    19.0130    11.9890 h2         1 APR       0.040700
     55 O1D         50.4650    17.0380    11.4420 oh         1 APR      -0.725000
     56 HOR1        50.0460    17.3350    10.6270 ho         1 APR       0.510000
     57 HR'2        51.6360    16.6650    13.5350 h1         1 APR       0.063700
@<TRIPOS>BOND
     1     1     2 ar  
     2     1     6 ar  
     3     2     3 ar  
     4     2    36 1   
     5     3     4 ar  
     6     4     5 ar  
     7     4    10 1   
     8     5     6 ar  
     9     5     8 1   
    10     6     7 1   
    11     7    37 1   
    12     7    38 1   
    13     8     9 2   
    14     9    10 1   
    15     9    39 1   
    16    10    11 1   
    17    11    12 1   
    18    11    16 1   
    19    11    40 1   
    20    12    13 1   
    21    12    14 1   
    22    12    41 1   
    23    13    42 1   
    24    14    15 1   
    25    14    17 1   
    26    14    43 1   
    27    15    44 1   
    28    16    17 1   
    29    17    18 1   
    30    17    45 1   
    31    18    19 1   
    32    18    46 1   
    33    18    47 1   
    34    19    20 1   
    35    20    21 1   
    36    20    22 1   
    37    20    23 1   
    38    23    24 1   
    39    24    25 1   
    40    24    26 1   
    41    24    27 1   
    42    27    28 1   
    43    28    35 1   
    44    28    48 1   
    45    28    49 1   
    46    29    30 1   
    47    29    35 1   
    48    30    32 1   
    49    30    54 1   
    50    30    55 1   
    51    31    32 1   
    52    31    50 1   
    53    32    34 1   
    54    32    57 1   
    55    33    34 1   
    56    33    51 1   
    57    34    35 1   
    58    34    52 1   
    59    35    53 1   
    60    55    56 1   
@<TRIPOS>SUBSTRUCTURE
     1 APR         1 TEMP              0 ****  ****    0 ROOT
