@<TRIPOS>MOLECULE
APR
   57    60     1     0     0
SMALL
No Charge or Current Charge


@<TRIPOS>ATOM
      1 N1          60.0680    22.3360     3.4710 nb         1 APR      -0.330000
      2 C2          60.9260    21.2900     3.4990 ca         1 APR       0.141900
      3 N3          60.6720    20.0500     3.9800 nb         1 APR      -0.215000
      4 C4          59.4370    19.8450     4.4830 ca         1 APR       0.084500
      5 C5          58.4920    20.8410     4.4940 ca         1 APR      -0.077600
      6 C6          58.8470    22.1060     3.9740 ca         1 APR       0.432900
      7 N6          57.9830    23.1550     3.9330 nv         1 APR      -1.082900
      8 N7          57.2790    20.4180     5.0240 nc         1 APR      -0.575100
      9 C8          57.5380    19.1300     5.3300 cd         1 APR       0.478700
     10 N9          58.8580    18.7260     5.0360 na         1 APR      -0.309300
     11 C1          59.3980    17.3660     5.1780 c5         1 APR       0.318300
     12 C7          60.8960    17.1970     5.6050 c5         1 APR       0.128300
     13 O2          61.4040    15.8680     5.4250 oh         1 APR      -0.714000
     14 C3          60.8010    17.4800     7.1350 c5         1 APR       0.087300
     15 O3          61.8470    16.7700     7.8350 oh         1 APR      -0.736000
     16 O4          58.6950    16.6840     6.2350 os         1 APR      -0.388000
     17 C9          59.3530    16.9810     7.5000 c5         1 APR       0.129300
     18 C10         58.5400    18.0120     8.3480 c3         1 APR       0.245600
     19 O5          57.1280    17.7650     8.2590 os         1 APR      -0.580400
     20 PA          56.4250    16.6260     9.1590 p5         1 APR       1.469800
     21 O1A         57.2900    15.4170     9.2890 o          1 APR      -0.842500
     22 O2A         55.0860    16.2390     8.6240 o          1 APR      -0.842500
     23 O3A         56.3890    17.3930    10.5360 os         1 APR      -0.728800
     24 PB          55.1710    18.3560    10.7990 p5         1 APR       1.466800
     25 O1B         54.7190    19.1260     9.6030 o          1 APR      -0.856500
     26 O2B         55.5140    19.2930    11.9100 o          1 APR      -0.856500
     27 O5D         54.0780    17.2640    11.2700 os         1 APR      -0.563400
     28 C5D         54.1180    16.7420    12.6080 c3         1 APR       0.229600
     29 O4D         52.3200    18.4840    12.9340 os         1 APR      -0.446000
     30 C1D         51.1880    17.6370    12.7120 c5         1 APR       0.394300
     31 O2D         50.1330    16.9720    14.9200 oh         1 APR      -0.706000
     32 C2D         51.1580    16.6640    13.9660 c5         1 APR       0.137300
     33 O3D         52.3380    17.7530    15.8710 oh         1 APR      -0.722000
     34 C3D         52.5360    16.9380    14.6900 c5         1 APR       0.099300
     35 C4D         53.3480    17.6920    13.5900 c5         1 APR       0.102300
     36 H2          61.9210    21.4610     3.0940 h5         1 APR       0.021100
     37 H61         57.0010    22.9430     4.0970 hn         1 APR       0.497500
     38 H62         58.1850    23.9190     3.2940 hn         1 APR       0.497500
     39 H8          56.8230    18.4320     5.7560 h5         1 APR       0.165800
     40 H'1         59.2130    16.8720     4.2160 h2         1 APR       0.098700
     41 H'2         61.5550    17.9180     5.1070 h1         1 APR       0.061700
     42 HO'2        61.8110    15.7020     6.3170 ho         1 APR       0.514000
     43 H'3         60.8910    18.5630     7.3080 h1         1 APR       0.059700
     44 HO'3        61.9550    17.1900     8.7240 ho         1 APR       0.520000
     45 H'4         59.4110    16.0430     8.0660 h1         1 APR       0.069700
     46 H5'1        58.8820    17.9680     9.3900 h1         1 APR       0.017700
     47 H5'2        58.7530    19.0240     7.9790 h1         1 APR       0.017700
     48 H5R1        53.6550    15.7470    12.6260 h1         1 APR       0.022200
     49 H5R2        55.1520    16.6200    12.9580 h1         1 APR       0.022200
     50 HOR2        50.6770    17.4360    15.6150 ho         1 APR       0.494000
     51 HOR3        53.2160    17.8600    16.3110 ho         1 APR       0.505000
     52 HR'3        53.0270    15.9940    14.9660 h1         1 APR       0.044700
     53 HR'4        54.0860    18.3740    14.0330 h1         1 APR       0.105700
     54 HR'1        50.2720    18.2380    12.6540 h2         1 APR       0.040700
     55 O1D         51.3980    16.9660    11.4820 oh         1 APR      -0.725000
     56 HOR1        52.3580    17.1360    11.2960 ho         1 APR       0.510000
     57 HR'2        51.0820    15.6180    13.6390 h1         1 APR       0.063700
@<TRIPOS>BOND
     1     1     2 ar  
     2     1     6 ar  
     3     2     3 ar  
     4     2    36 1   
     5     3     4 ar  
     6     4     5 ar  
     7     4    10 1   
     8     5     6 ar  
     9     5     8 1   
    10     6     7 1   
    11     7    37 1   
    12     7    38 1   
    13     8     9 2   
    14     9    10 1   
    15     9    39 1   
    16    10    11 1   
    17    11    12 1   
    18    11    16 1   
    19    11    40 1   
    20    12    13 1   
    21    12    14 1   
    22    12    41 1   
    23    13    42 1   
    24    14    15 1   
    25    14    17 1   
    26    14    43 1   
    27    15    44 1   
    28    16    17 1   
    29    17    18 1   
    30    17    45 1   
    31    18    19 1   
    32    18    46 1   
    33    18    47 1   
    34    19    20 1   
    35    20    21 1   
    36    20    22 1   
    37    20    23 1   
    38    23    24 1   
    39    24    25 1   
    40    24    26 1   
    41    24    27 1   
    42    27    28 1   
    43    28    35 1   
    44    28    48 1   
    45    28    49 1   
    46    29    30 1   
    47    29    35 1   
    48    30    32 1   
    49    30    54 1   
    50    30    55 1   
    51    31    32 1   
    52    31    50 1   
    53    32    34 1   
    54    32    57 1   
    55    33    34 1   
    56    33    51 1   
    57    34    35 1   
    58    34    52 1   
    59    35    53 1   
    60    55    56 1   
@<TRIPOS>SUBSTRUCTURE
     1 APR         1 TEMP              0 ****  ****    0 ROOT
