@<TRIPOS>MOLECULE
APS
   25    26     1     0     0
SMALL
No Charge or Current Charge


@<TRIPOS>ATOM
      1 C7           0.3660    -0.8060     2.1470 c3         1 APS       0.041600
      2 C8           0.0050     0.3820     3.0730 c3         1 APS       0.157300
      3 O1          -1.1630     1.0500     2.5800 oh         1 APS      -0.648000
      4 C9          -0.2640    -0.0670     4.5220 c3         1 APS      -0.127100
      5 C4          -0.1560    -0.3300    -0.2810 ca         1 APS       0.130500
      6 C3           0.5870     0.0370    -1.3770 ca         1 APS      -0.098600
      7 C2          -0.0840     0.1840    -2.6100 ca         1 APS       0.450900
      8 N2          -1.4050    -0.0300    -2.7170 nb         1 APS      -0.302000
      9 C1          -2.0430    -0.3840    -1.5760 ca         1 APS       0.186900
     10 N5           0.5580     0.5390    -3.7550 nv         1 APS      -1.059900
     11 N4           0.7180    -0.3980     0.7720 na         1 APS      -0.273300
     12 N3           1.9380     0.2080    -1.0790 nc         1 APS      -0.549100
     13 C6           1.9760    -0.0700     0.2380 cd         1 APS       0.403700
     14 N1          -1.4850    -0.5440    -0.3530 nb         1 APS      -0.235000
     15 H72          1.2230    -1.3420     2.5750 h1         1 APS       0.068700
     16 H71         -0.4740    -1.5120     2.1100 h1         1 APS       0.068700
     17 H8           0.8590     1.0750     3.0840 h1         1 APS       0.073700
     18 H1          -1.1160     1.0060     1.5990 ho         1 APS       0.459000
     19 H93         -0.5000     0.7970     5.1550 hc         1 APS       0.045367
     20 H92         -1.1070    -0.7670     4.5650 hc         1 APS       0.045367
     21 H91          0.6190    -0.5630     4.9410 hc         1 APS       0.045367
     22 H52          0.0970     0.3430    -4.6400 hn         1 APS       0.504000
     23 H51          1.5740     0.4910    -3.7480 hn         1 APS       0.504000
     24 H6           2.8620    -0.0580     0.8620 h5         1 APS       0.063800
     25 H1C1        -3.1160    -0.5570    -1.6500 h5         1 APS       0.045100
@<TRIPOS>BOND
     1     1     2 1   
     2     1    11 1   
     3     1    15 1   
     4     1    16 1   
     5     2     3 1   
     6     2     4 1   
     7     2    17 1   
     8     3    18 1   
     9     4    19 1   
    10     4    20 1   
    11     4    21 1   
    12     5     6 ar  
    13     5    11 1   
    14     5    14 ar  
    15     6     7 ar  
    16     6    12 1   
    17     7     8 ar  
    18     7    10 1   
    19     8     9 ar  
    20     9    14 ar  
    21     9    25 1   
    22    10    22 1   
    23    10    23 1   
    24    11    13 1   
    25    12    13 2   
    26    13    24 1   
@<TRIPOS>SUBSTRUCTURE
     1 APS         1 TEMP              0 ****  ****    0 ROOT
