@<TRIPOS>MOLECULE
APS
   25    26     1     0     0
SMALL
bcc


@<TRIPOS>ATOM
      1 C7           0.4720    -0.8080     2.1320 c3         1 APS       0.012300
      2 C8           0.0530     0.4180     2.9430 c3         1 APS       0.134100
      3 O1          -0.9460     1.1640     2.2860 oh         1 APS      -0.585800
      4 C9          -0.3630    -0.0060     4.3430 c3         1 APS      -0.127100
      5 C4          -0.1110    -0.3550    -0.2630 ca         1 APS       0.458800
      6 C3           0.6460     0.0080    -1.3670 ca         1 APS      -0.229200
      7 C2          -0.0590     0.1910    -2.5720 ca         1 APS       0.779200
      8 N2          -1.3830     0.0030    -2.5600 nb         1 APS      -0.828000
      9 C1          -1.9780    -0.3480    -1.4210 ca         1 APS       0.712900
     10 N5           0.5390     0.5590    -3.7080 nv         1 APS      -0.949500
     11 N4           0.7810    -0.4860     0.7570 na         1 APS      -0.244000
     12 N3           1.9720     0.1080    -1.0360 nc         1 APS      -0.549100
     13 C6           2.0050    -0.1890     0.2310 cd         1 APS       0.403700
     14 N1          -1.4290    -0.5480    -0.2370 nb         1 APS      -0.761000
     15 H72          1.3490    -1.2720     2.5820 h1         1 APS       0.068700
     16 H71         -0.3230    -1.5580     2.1330 h1         1 APS       0.068700
     17 H8           0.9150     1.0880     3.0170 h1         1 APS       0.073700
     18 H1          -1.6680     0.5750     2.0380 ho         1 APS       0.420000
     19 H93         -0.6440     0.8620     4.9390 hc         1 APS       0.045367
     20 H92         -1.2150    -0.6880     4.3130 hc         1 APS       0.045367
     21 H91          0.4540    -0.5140     4.8580 hc         1 APS       0.045367
     22 H52          0.0150     0.5820    -4.5660 hn         1 APS       0.448800
     23 H51          1.5420     0.6000    -3.7690 hn         1 APS       0.448800
     24 H6           2.8960    -0.2200     0.8420 h5         1 APS       0.063800
     25 H1C1        -3.0520    -0.4850    -1.4810 h5         1 APS       0.045100
@<TRIPOS>BOND
     1     1     2 1   
     2     1    11 1   
     3     1    15 1   
     4     1    16 1   
     5     2     3 1   
     6     2     4 1   
     7     2    17 1   
     8     3    18 1   
     9     4    19 1   
    10     4    20 1   
    11     4    21 1   
    12     5     6 ar  
    13     5    11 1   
    14     5    14 ar  
    15     6     7 ar  
    16     6    12 1   
    17     7     8 ar  
    18     7    10 1   
    19     8     9 ar  
    20     9    14 ar  
    21     9    25 1   
    22    10    22 1   
    23    10    23 1   
    24    11    13 1   
    25    12    13 2   
    26    13    24 1   
@<TRIPOS>SUBSTRUCTURE
     1 APS         1 TEMP              0 ****  ****    0 ROOT
