@<TRIPOS>MOLECULE
APT
   35    37     1     0     0
SMALL
abcg2


@<TRIPOS>ATOM
      1 C8          -0.2600    -1.0820    -0.7360 c3         1 APT       0.161500
      2 N9           3.2750    -2.1870    -0.0850 nb         1 APT      -0.653000
      3 C9           3.8400    -0.9930    -0.0090 ca         1 APT       0.452500
      4 N3           5.1790    -0.8880     0.2300 na         1 APT      -0.521000
      5 C10          5.7740     0.3190     0.3180 ca         1 APT       0.771000
      6 N2           7.0610     0.3860     0.5610 nv         1 APT      -0.577500
      7 N1           5.0950     1.4660     0.1660 nb         1 APT      -0.799000
      8 C11          3.8190     1.4220    -0.0640 ca         1 APT       0.779300
      9 O6           3.1840     2.5450    -0.2040 oh         1 APT      -0.555300
     10 C12          3.1030     0.1730    -0.1630 ca         1 APT       0.056000
     11 N7           1.7980     0.1550    -0.3950 nb         1 APT      -0.571000
     12 C13          1.2150    -1.0210    -0.4750 ca         1 APT       0.330300
     13 C14          1.9790    -2.1960    -0.3120 ca         1 APT       0.393900
     14 N4          -0.9700    -0.3410     0.2750 nu         1 APT      -0.948200
     15 C1          -3.0250     0.3370     1.3090 ca         1 APT      -0.187500
     16 C2          -4.3790     0.6020     1.2470 ca         1 APT      -0.055000
     17 C3          -5.1090     0.4130     0.0730 ca         1 APT      -0.135600
     18 C4          -4.4180    -0.0610    -1.0360 ca         1 APT      -0.055000
     19 C5          -3.0580    -0.3370    -0.9950 ca         1 APT      -0.187500
     20 C6          -2.3320    -0.1330     0.1830 ca         1 APT       0.224000
     21 O2          -7.1730     0.4900    -1.0700 o          1 APT      -0.711000
     22 O3          -7.1190     1.1620     1.0520 o          1 APT      -0.711000
     23 H82         -0.5750    -2.1300    -0.8070 h1         1 APT       0.065200
     24 H81         -0.4450    -0.6330    -1.7150 h1         1 APT       0.065200
     25 H3           5.7140    -1.7410     0.3510 hn         1 APT       0.387000
     26 H21          7.5000     1.2890     0.6430 hn         1 APT       0.385000
     27 H22          7.6310    -0.4320     0.7060 hn         1 APT       0.385000
     28 HO6          2.2370     2.3880    -0.3670 ho         1 APT       0.555000
     29 H9           1.4980    -3.1650    -0.3710 h4         1 APT       0.071100
     30 HN4         -0.6490    -0.5150     1.2160 hn         1 APT       0.443000
     31 H1          -2.4850     0.4990     2.2350 ha         1 APT       0.082500
     32 H2          -4.8830     0.9650     2.1340 ha         1 APT       0.135000
     33 H4          -4.9550    -0.2300    -1.9620 ha         1 APT       0.135000
     34 H5          -2.5780    -0.7160    -1.8870 ha         1 APT       0.082500
     35 C7          -6.5940     0.7130     0.0130 c          1 APT       0.709600
@<TRIPOS>BOND
     1     1    12 1   
     2     1    14 1   
     3     1    23 1   
     4     1    24 1   
     5     2     3 ar  
     6     2    13 ar  
     7     3     4 1   
     8     3    10 ar  
     9     4     5 2   
    10     4    25 1   
    11     5     6 1   
    12     5     7 ar  
    13     6    26 1   
    14     6    27 1   
    15     7     8 ar  
    16     8     9 1   
    17     8    10 ar  
    18     9    28 1   
    19    10    11 ar  
    20    11    12 ar  
    21    12    13 ar  
    22    13    29 1   
    23    14    20 1   
    24    14    30 1   
    25    15    16 ar  
    26    15    20 ar  
    27    15    31 1   
    28    16    17 ar  
    29    16    32 1   
    30    17    18 ar  
    31    17    35 1   
    32    18    19 ar  
    33    18    33 1   
    34    19    20 ar  
    35    19    34 1   
    36    21    35 1   
    37    22    35 1   
@<TRIPOS>SUBSTRUCTURE
     1 APT         1 TEMP              0 ****  ****    0 ROOT
