@<TRIPOS>MOLECULE
APT
   35    37     1     0     0
SMALL
No Charge or Current Charge


@<TRIPOS>ATOM
      1 C8          -0.2430    -0.9000    -0.9720 c3         1 APT       0.161500
      2 N9           3.3690    -2.1510    -0.5700 nb         1 APT      -0.653000
      3 C9           3.9630    -0.9990    -0.1930 ca         1 APT       0.452500
      4 N3           5.3120    -0.9820     0.0640 na         1 APT      -0.521000
      5 C10          5.8730     0.1950     0.4440 ca         1 APT       0.771000
      6 N2           7.1790     0.2440     0.7100 nv         1 APT      -0.577500
      7 N1           5.2630     1.3540     0.5900 nb         1 APT      -0.799000
      8 C11          3.9500     1.3440     0.3360 ca         1 APT       0.779300
      9 O6           3.3300     2.5340     0.4840 oh         1 APT      -0.555300
     10 C12          3.2100     0.2060    -0.0620 ca         1 APT       0.056000
     11 N7           1.8580     0.2580    -0.3060 nb         1 APT      -0.571000
     12 C13          1.2690    -0.9150    -0.6840 ca         1 APT       0.330300
     13 C14          2.0260    -2.1060    -0.8140 ca         1 APT       0.393900
     14 N4          -1.0630    -0.2700     0.1030 nu         1 APT      -0.948200
     15 C1          -3.0110     0.8170     1.0120 ca         1 APT      -0.187500
     16 C2          -4.4020     1.0190     1.0480 ca         1 APT      -0.055000
     17 C3          -5.2560     0.3040     0.1760 ca         1 APT      -0.135600
     18 C4          -4.6780    -0.6160    -0.7290 ca         1 APT      -0.055000
     19 C5          -3.2850    -0.8130    -0.7600 ca         1 APT      -0.187500
     20 C6          -2.4470    -0.0960     0.1100 ca         1 APT       0.224000
     21 O2          -7.4600    -0.1210    -0.5600 o          1 APT      -0.711000
     22 O3          -7.2170     1.3240     1.0110 o          1 APT      -0.711000
     23 H82         -0.5770    -1.9350    -1.1310 h1         1 APT       0.065200
     24 H81         -0.4010    -0.3640    -1.9180 h1         1 APT       0.065200
     25 H3           5.8680    -1.8130    -0.0530 hn         1 APT       0.387000
     26 H21          7.5130     1.0930     1.1380 hn         1 APT       0.385000
     27 H22          7.6730    -0.6120     0.9040 hn         1 APT       0.385000
     28 HO6          2.4010     2.3280     0.2520 ho         1 APT       0.555000
     29 H9           1.5520    -3.0370    -1.1180 h4         1 APT       0.071100
     30 HN4         -0.5490     0.3170     0.7650 hn         1 APT       0.443000
     31 H1          -2.3730     1.3770     1.6910 ha         1 APT       0.082500
     32 H2          -4.8140     1.7340     1.7570 ha         1 APT       0.135000
     33 H4          -5.3060    -1.1840    -1.4130 ha         1 APT       0.135000
     34 H5          -2.8710    -1.5280    -1.4640 ha         1 APT       0.082500
     35 C7          -6.7600     0.5190     0.2120 c          1 APT       0.709600
@<TRIPOS>BOND
     1     1    12 1   
     2     1    14 1   
     3     1    23 1   
     4     1    24 1   
     5     2     3 ar  
     6     2    13 ar  
     7     3     4 1   
     8     3    10 ar  
     9     4     5 2   
    10     4    25 1   
    11     5     6 1   
    12     5     7 ar  
    13     6    26 1   
    14     6    27 1   
    15     7     8 ar  
    16     8     9 1   
    17     8    10 ar  
    18     9    28 1   
    19    10    11 ar  
    20    11    12 ar  
    21    12    13 ar  
    22    13    29 1   
    23    14    20 1   
    24    14    30 1   
    25    15    16 ar  
    26    15    20 ar  
    27    15    31 1   
    28    16    17 ar  
    29    16    32 1   
    30    17    18 ar  
    31    17    35 1   
    32    18    19 ar  
    33    18    33 1   
    34    19    20 ar  
    35    19    34 1   
    36    21    35 1   
    37    22    35 1   
@<TRIPOS>SUBSTRUCTURE
     1 APT         1 TEMP              0 ****  ****    0 ROOT
