@<TRIPOS>MOLECULE
APV
   41    42     1     0     0
SMALL
abcg2


@<TRIPOS>ATOM
      1 C1          16.9720    35.8840     5.3510 c          1 APV       0.683000
      2 C2          15.7030    36.4140     6.0710 c3         1 APV       0.019500
      3 C3          15.0950    37.5350     5.2160 c3         1 APV      -0.049400
      4 C4          13.7260    38.0070     5.6920 c3         1 APV      -0.068400
      5 C7          13.1540    39.1100     4.7880 c3         1 APV      -0.157400
      6 C10         11.8570    39.6500     5.3430 c          1 APV       0.605100
      7 N11         10.7320    39.0590     4.8620 ns         1 APV      -0.483900
      8 C12          9.4220    39.3630     5.3360 cy         1 APV       0.008700
      9 C13          8.5950    38.1970     5.9380 c          1 APV       0.526000
     10 N14         15.9410    36.8860     7.4420 n8         1 APV      -0.996200
     11 O15         11.8250    40.5350     6.1960 o          1 APV      -0.626100
     12 C16          8.2460    39.4570     4.3180 cy         1 APV       0.221700
     13 S17          8.4400    38.6070     2.7130 ss         1 APV      -0.573000
     14 O18          8.7990    37.3040     6.7270 o          1 APV      -0.502000
     15 O19         18.0810    36.3460     5.7250 o          1 APV      -0.741500
     16 O20         16.7880    35.0560     4.4210 o          1 APV      -0.741500
     17 N29          7.5140    38.4850     5.1410 nj         1 APV      -0.317800
     18 C30          6.6560    37.5120     4.4760 c5         1 APV      -0.028300
     19 C31          5.1830    37.4530     4.9660 c          1 APV       0.731000
     20 C32          6.8070    37.7660     2.9430 c5         1 APV       0.135300
     21 C33          5.6820    38.5420     2.2810 c3         1 APV       0.168600
     22 O42          4.5140    36.5300     4.4400 o          1 APV      -0.713500
     23 O32          5.5640    39.8370     2.8690 oh         1 APV      -0.649000
     24 O43          4.8050    38.2680     5.8330 o          1 APV      -0.713500
     25 H2          14.9850    35.5910     6.1170 h1         1 APV       0.041700
     26 H3C1        15.7900    38.3820     5.2070 hc         1 APV       0.036200
     27 H3C2        15.0180    37.1800     4.1850 hc         1 APV       0.036200
     28 H4C1        13.0320    37.1610     5.7110 hc         1 APV       0.051700
     29 H4C2        13.7990    38.3820     6.7140 hc         1 APV       0.051700
     30 H7C1        13.8570    39.9430     4.7360 hc         1 APV       0.054200
     31 H7C2        13.0090    38.7240     3.7760 hc         1 APV       0.054200
     32 H11         10.8320    38.3080     4.1950 hn         1 APV       0.329500
     33 H12          9.4810    40.2270     5.9930 h1         1 APV       0.108700
     34 H141        16.1490    36.0850     8.0310 hn         1 APV       0.379500
     35 H142        16.8060    37.4220     7.4210 hn         1 APV       0.379500
     36 H16          7.7640    40.4220     4.2020 h2         1 APV       0.112700
     37 H30          7.0740    36.5260     4.6920 h1         1 APV       0.055700
     38 H32          6.8880    36.8090     2.4290 h1         1 APV       0.077700
     39 H331         5.8980    38.6240     1.2110 h1         1 APV       0.032700
     40 H332         4.7550    37.9770     2.4060 h1         1 APV       0.032700
     41 HA           4.7250    40.2200     2.5890 ho         1 APV       0.427000
@<TRIPOS>BOND
     1     1     2 1   
     2     1    15 1   
     3     1    16 1   
     4     2     3 1   
     5     2    10 1   
     6     2    25 1   
     7     3     4 1   
     8     3    26 1   
     9     3    27 1   
    10     4     5 1   
    11     4    28 1   
    12     4    29 1   
    13     5     6 1   
    14     5    30 1   
    15     5    31 1   
    16     6     7 1   
    17     6    11 2   
    18     7     8 1   
    19     7    32 1   
    20     8     9 1   
    21     8    12 1   
    22     8    33 1   
    23     9    14 2   
    24     9    17 1   
    25    10    34 1   
    26    10    35 1   
    27    12    13 1   
    28    12    17 1   
    29    12    36 1   
    30    13    20 1   
    31    17    18 1   
    32    18    19 1   
    33    18    20 1   
    34    18    37 1   
    35    19    22 1   
    36    19    24 1   
    37    20    21 1   
    38    20    38 1   
    39    21    23 1   
    40    21    39 1   
    41    21    40 1   
    42    23    41 1   
@<TRIPOS>SUBSTRUCTURE
     1 APV         1 TEMP              0 ****  ****    0 ROOT
