@<TRIPOS>MOLECULE
APV
   41    42     1     0     0
SMALL
No Charge or Current Charge


@<TRIPOS>ATOM
      1 C1          17.0200    35.9000     4.9840 c          1 APV       0.683000
      2 C2          15.7610    36.3400     5.8410 c3         1 APV       0.019500
      3 C3          15.1710    37.6650     5.2870 c3         1 APV      -0.049400
      4 C4          13.7620    38.0180     5.8260 c3         1 APV      -0.068400
      5 C7          13.1840    39.3120     5.2050 c3         1 APV      -0.157400
      6 C10         11.7890    39.6290     5.7590 c          1 APV       0.605100
      7 N11         10.7500    39.4030     4.8860 ns         1 APV      -0.483900
      8 C12          9.3490    39.6100     5.2170 cy         1 APV       0.008700
      9 C13          8.5690    38.4990     5.9970 c          1 APV       0.526000
     10 N14         15.9760    36.4260     7.3330 n8         1 APV      -0.996200
     11 O15         11.6110    40.0820     6.8810 o          1 APV      -0.626100
     12 C16          8.2510    39.3920     4.1180 cy         1 APV       0.221700
     13 S17          8.4820    38.1240     2.7880 ss         1 APV      -0.573000
     14 O18          8.7840    37.7840     6.9660 o          1 APV      -0.502000
     15 O19         18.0840    36.4750     5.1720 o          1 APV      -0.741500
     16 O20         16.9110    34.9260     4.2510 o          1 APV      -0.741500
     17 N29          7.5060    38.5880     5.0950 nj         1 APV      -0.317800
     18 C30          6.5890    37.5330     4.6260 c5         1 APV      -0.028300
     19 C31          5.0920    37.7030     5.0420 c          1 APV       0.731000
     20 C32          6.7500    37.4670     3.0650 c5         1 APV       0.135300
     21 C33          5.7010    38.2250     2.1820 c3         1 APV       0.168600
     22 O42          4.3100    36.8020     4.7700 o          1 APV      -0.713500
     23 O32          5.5900    39.6230     2.5010 oh         1 APV      -0.649000
     24 O43          4.7480    38.6680     5.7140 o          1 APV      -0.713500
     25 H2          15.0020    35.5610     5.6810 h1         1 APV       0.041700
     26 H3C1        15.8620    38.4910     5.4990 hc         1 APV       0.036200
     27 H3C2        15.1110    37.5850     4.1940 hc         1 APV       0.036200
     28 H4C1        13.0790    37.1840     5.6210 hc         1 APV       0.051700
     29 H4C2        13.8060    38.1330     6.9160 hc         1 APV       0.051700
     30 H7C1        13.8550    40.1440     5.4490 hc         1 APV       0.054200
     31 H7C2        13.1340    39.1820     4.1180 hc         1 APV       0.054200
     32 H11         10.9980    39.0230     3.9790 hn         1 APV       0.329500
     33 H12          9.2450    40.5800     5.7160 h1         1 APV       0.108700
     34 H141        16.3150    35.5180     7.6730 hn         1 APV       0.379500
     35 H142        16.7740    37.0500     7.5040 hn         1 APV       0.379500
     36 H16          7.7320    40.2800     3.7390 h2         1 APV       0.112700
     37 H30          6.9350    36.5910     5.0680 h1         1 APV       0.055700
     38 H32          6.7190    36.4180     2.7390 h1         1 APV       0.077700
     39 H331         5.9950    38.1060     1.1300 h1         1 APV       0.032700
     40 H332         4.7240    37.7360     2.2930 h1         1 APV       0.032700
     41 HA           4.9380    40.0090     1.8760 ho         1 APV       0.427000
@<TRIPOS>BOND
     1     1     2 1   
     2     1    15 1   
     3     1    16 1   
     4     2     3 1   
     5     2    10 1   
     6     2    25 1   
     7     3     4 1   
     8     3    26 1   
     9     3    27 1   
    10     4     5 1   
    11     4    28 1   
    12     4    29 1   
    13     5     6 1   
    14     5    30 1   
    15     5    31 1   
    16     6     7 1   
    17     6    11 2   
    18     7     8 1   
    19     7    32 1   
    20     8     9 1   
    21     8    12 1   
    22     8    33 1   
    23     9    14 2   
    24     9    17 1   
    25    10    34 1   
    26    10    35 1   
    27    12    13 1   
    28    12    17 1   
    29    12    36 1   
    30    13    20 1   
    31    17    18 1   
    32    18    19 1   
    33    18    20 1   
    34    18    37 1   
    35    19    22 1   
    36    19    24 1   
    37    20    21 1   
    38    20    38 1   
    39    21    23 1   
    40    21    39 1   
    41    21    40 1   
    42    23    41 1   
@<TRIPOS>SUBSTRUCTURE
     1 APV         1 TEMP              0 ****  ****    0 ROOT
