@<TRIPOS>MOLECULE
APY
   16    16     1     0     0
SMALL
bcc


@<TRIPOS>ATOM
      1 N            0.3470     0.3630     2.7310 n8         1 APY      -0.874800
      2 CM          -0.6840    -0.2080     1.8820 c3         1 APY       0.102500
      3 C2          -0.3170    -0.1060     0.4250 ca         1 APY       0.420600
      4 C3          -1.2820     0.1500    -0.5450 ca         1 APY      -0.242300
      5 C4          -0.9040     0.1880    -1.8770 ca         1 APY      -0.088000
      6 C5           0.4260    -0.0300    -2.2020 ca         1 APY      -0.251300
      7 C6           1.3150    -0.2750    -1.1670 ca         1 APY       0.409200
      8 N1           0.9580    -0.3170     0.1110 nb         1 APY      -0.676000
      9 HN1          1.2130    -0.1340     2.5680 hn         1 APY       0.346300
     10 HN2          0.1040     0.1930     3.6990 hn         1 APY       0.346300
     11 HM1         -0.8960    -1.2670     2.0950 h1         1 APY       0.036200
     12 HM2         -1.6220     0.3240     2.0510 h1         1 APY       0.036200
     13 H3          -2.3110     0.3240    -0.2570 ha         1 APY       0.140000
     14 H4          -1.6360     0.3880    -2.6490 ha         1 APY       0.136000
     15 H5           0.7700    -0.0100    -3.2270 ha         1 APY       0.141000
     16 H6           2.3650    -0.4470    -1.3790 h4         1 APY       0.017100
@<TRIPOS>BOND
     1     1     2 1   
     2     1     9 1   
     3     1    10 1   
     4     2     3 1   
     5     2    11 1   
     6     2    12 1   
     7     3     4 ar  
     8     3     8 ar  
     9     4     5 ar  
    10     4    13 1   
    11     5     6 ar  
    12     5    14 1   
    13     6     7 ar  
    14     6    15 1   
    15     7     8 ar  
    16     7    16 1   
@<TRIPOS>SUBSTRUCTURE
     1 APY         1 TEMP              0 ****  ****    0 ROOT
