@<TRIPOS>MOLECULE
APY
   16    16     1     0     0
SMALL
No Charge or Current Charge


@<TRIPOS>ATOM
      1 N            0.0470     0.5980     2.7950 n8         1 APY      -0.985200
      2 CM          -0.6180    -0.3910     1.8950 c3         1 APY       0.102500
      3 C2          -0.2750    -0.2490     0.3970 ca         1 APY       0.355300
      4 C3          -1.2150     0.2790    -0.5110 ca         1 APY      -0.159000
      5 C4          -0.8730     0.3970    -1.8670 ca         1 APY      -0.070000
      6 C5           0.4070    -0.0210    -2.2630 ca         1 APY      -0.168000
      7 C6           1.2900    -0.5360    -1.2980 ca         1 APY       0.343900
      8 N1           0.9640    -0.6510     0.0100 nb         1 APY      -0.676000
      9 HN1          1.0660     0.4830     2.7090 hn         1 APY       0.401500
     10 HN2         -0.1430     0.3500     3.7740 hn         1 APY       0.401500
     11 HM1         -0.3320    -1.4000     2.2250 h1         1 APY       0.036200
     12 HM2         -1.7050    -0.3000     2.0270 h1         1 APY       0.036200
     13 H3          -2.1950     0.5930    -0.1620 ha         1 APY       0.122000
     14 H4          -1.5790     0.8000    -2.5900 ha         1 APY       0.118000
     15 H5           0.7190     0.0500    -3.3020 ha         1 APY       0.123000
     16 H6           2.2890    -0.8660    -1.5810 h4         1 APY       0.017100
@<TRIPOS>BOND
     1     1     2 1   
     2     1     9 1   
     3     1    10 1   
     4     2     3 1   
     5     2    11 1   
     6     2    12 1   
     7     3     4 ar  
     8     3     8 ar  
     9     4     5 ar  
    10     4    13 1   
    11     5     6 ar  
    12     5    14 1   
    13     6     7 ar  
    14     6    15 1   
    15     7     8 ar  
    16     7    16 1   
@<TRIPOS>SUBSTRUCTURE
     1 APY         1 TEMP              0 ****  ****    0 ROOT
