@<TRIPOS>MOLECULE
APZ
   20    21     1     0     0
SMALL
No Charge or Current Charge


@<TRIPOS>ATOM
      1 N10         15.8220    16.9840    23.9180 ns         1 APZ      -0.366500
      2 C5          15.3430    16.7880    22.6380 c          1 APZ       0.587600
      3 O11         14.1850    16.4470    22.4450 o          1 APZ      -0.563000
      4 C2          16.3300    17.0200    21.5190 ca         1 APZ      -0.183600
      5 C6          15.9300    16.8430    20.1770 ca         1 APZ      -0.011000
      6 C12         16.8420    17.0570    19.1310 ca         1 APZ      -0.185000
      7 C9          18.1550    17.4480    19.4100 ca         1 APZ       0.337000
      8 C4          18.5640    17.6260    20.7370 ca         1 APZ      -0.153000
      9 C1          17.6630    17.4160    21.8060 ca         1 APZ      -0.062600
     10 C3          18.1170    17.6120    23.2380 c          1 APZ       0.573600
     11 O8          19.2520    17.9520    23.5430 o          1 APZ      -0.556000
     12 N7          17.1620    17.3820    24.2100 ns         1 APZ      -0.358500
     13 N13         19.0360    17.6540    18.3840 nv         1 APZ      -1.099000
     14 H10         15.1830    16.8370    24.6970 hn         1 APZ       0.345500
     15 H6          14.9110    16.5400    19.9420 ha         1 APZ       0.139000
     16 H12         16.5200    16.9160    18.1020 ha         1 APZ       0.120000
     17 H4          19.5870    17.9280    20.9440 ha         1 APZ       0.141000
     18 H7          17.4280    17.5030    25.1850 hn         1 APZ       0.344500
     19 H131        19.9320    18.1020    18.5710 hn         1 APZ       0.474500
     20 H132        18.6940    17.6880    17.4240 hn         1 APZ       0.474500
@<TRIPOS>BOND
     1     1     2 1   
     2     1    12 1   
     3     1    14 1   
     4     2     3 2   
     5     2     4 1   
     6     4     5 ar  
     7     4     9 ar  
     8     5     6 ar  
     9     5    15 1   
    10     6     7 ar  
    11     6    16 1   
    12     7     8 ar  
    13     7    13 1   
    14     8     9 ar  
    15     8    17 1   
    16     9    10 1   
    17    10    11 2   
    18    10    12 1   
    19    12    18 1   
    20    13    19 1   
    21    13    20 1   
@<TRIPOS>SUBSTRUCTURE
     1 APZ         1 TEMP              0 ****  ****    0 ROOT
