@<TRIPOS>MOLECULE
APZ
   20    21     1     0     0
SMALL
abcg2


@<TRIPOS>ATOM
      1 N10         15.8580    16.9900    23.8600 ns         1 APZ      -0.366500
      2 C5          15.3660    16.7930    22.6110 c          1 APZ       0.587600
      3 O11         14.1880    16.4480    22.4520 o          1 APZ      -0.563000
      4 C2          16.3270    17.0180    21.5300 ca         1 APZ      -0.183600
      5 C6          15.9380    16.8490    20.1960 ca         1 APZ      -0.011000
      6 C12         16.8280    17.0570    19.1680 ca         1 APZ      -0.185000
      7 C9          18.1600    17.4460    19.4310 ca         1 APZ       0.337000
      8 C4          18.5530    17.6190    20.7650 ca         1 APZ      -0.153000
      9 C1          17.6510    17.4090    21.7980 ca         1 APZ      -0.062600
     10 C3          18.1020    17.6090    23.1920 c          1 APZ       0.573600
     11 O8          19.2390    17.9620    23.5150 o          1 APZ      -0.556000
     12 N7          17.1580    17.3720    24.1300 ns         1 APZ      -0.358500
     13 N13         19.0500    17.6070    18.4070 nv         1 APZ      -1.099000
     14 H10         15.2710    16.8480    24.6690 hn         1 APZ       0.345500
     15 H6          14.9200    16.5530    19.9830 ha         1 APZ       0.139000
     16 H12         16.5130    16.9240    18.1400 ha         1 APZ       0.120000
     17 H4          19.5650    17.9210    21.0000 ha         1 APZ       0.141000
     18 H7          17.3770    17.4980    25.1080 hn         1 APZ       0.344500
     19 H131        19.9070    18.1050    18.5920 hn         1 APZ       0.474500
     20 H132        18.6860    17.7160    17.4740 hn         1 APZ       0.474500
@<TRIPOS>BOND
     1     1     2 1   
     2     1    12 1   
     3     1    14 1   
     4     2     3 2   
     5     2     4 1   
     6     4     5 ar  
     7     4     9 ar  
     8     5     6 ar  
     9     5    15 1   
    10     6     7 ar  
    11     6    16 1   
    12     7     8 ar  
    13     7    13 1   
    14     8     9 ar  
    15     8    17 1   
    16     9    10 1   
    17    10    11 2   
    18    10    12 1   
    19    12    18 1   
    20    13    19 1   
    21    13    20 1   
@<TRIPOS>SUBSTRUCTURE
     1 APZ         1 TEMP              0 ****  ****    0 ROOT
