@<TRIPOS>MOLECULE
AQ0
   41    44     1     0     0
SMALL
No Charge or Current Charge


@<TRIPOS>ATOM
      1 C1           4.3930     2.2980     0.0530 ca         1 AQ0      -0.111000
      2 C2           3.7540     1.0440     0.0030 ca         1 AQ0       0.004000
      3 C3           2.3430     0.9590     0.0570 ca         1 AQ0      -0.061000
      4 C9           1.7050    -0.3070     0.0060 ca         1 AQ0       0.171100
      5 C10          1.8210    -2.7770    -0.1500 c          1 AQ0       0.595900
      6 C13         -1.8560    -1.5220     0.0700 c6         1 AQ0      -0.020500
      7 C14         -2.3410    -0.9070     1.4120 c6         1 AQ0      -0.064900
      8 C15         -3.8910    -0.8310     1.4690 c6         1 AQ0      -0.076400
      9 C16         -4.4810    -0.0420     0.2690 c6         1 AQ0       0.175500
     10 C4           1.5900     2.1520     0.1620 ca         1 AQ0      -0.072000
     11 C6           4.5250    -0.1240    -0.1010 ca         1 AQ0      -0.135000
     12 C17         -3.9870    -0.6630    -1.0670 c6         1 AQ0      -0.076400
     13 C18         -2.4380    -0.7360    -1.1380 c6         1 AQ0      -0.064900
     14 N2          -5.5970     2.9210    -0.7770 n1         1 AQ0      -0.084000
     15 N           -4.1780     1.3980     0.3650 n2         1 AQ0      -0.438200
     16 C12         -0.3430    -1.5460     0.0110 cc         1 AQ0       0.142900
     17 O            0.3130    -0.3240     0.0650 os         1 AQ0      -0.208200
     18 C5           2.2340     3.4010     0.2110 ca         1 AQ0      -0.119000
     19 C            3.6340     3.4740     0.1570 ca         1 AQ0      -0.087000
     20 C11          0.3770    -2.7150    -0.0900 cd         1 AQ0      -0.386200
     21 O1           2.4250    -3.8370    -0.2380 o          1 AQ0      -0.547100
     22 C8           2.4930    -1.4680    -0.0980 ca         1 AQ0      -0.232600
     23 C7           3.8990    -1.3770    -0.1510 ca         1 AQ0      -0.035000
     24 H1           5.4780     2.3620     0.0110 ha         1 AQ0       0.118000
     25 H2          -2.2360    -2.5520     0.0150 hc         1 AQ0       0.066700
     26 H3          -1.9690    -1.5080     2.2530 hc         1 AQ0       0.058200
     27 H4          -1.9190     0.1000     1.5420 hc         1 AQ0       0.058200
     28 H5          -4.3050    -1.8480     1.4730 hc         1 AQ0       0.050450
     29 H6          -4.2090    -0.3680     2.4140 hc         1 AQ0       0.050450
     30 H7          -5.5760    -0.1530     0.3090 h1         1 AQ0       0.049700
     31 H8           0.5030     2.1260     0.2060 ha         1 AQ0       0.127000
     32 H9           5.6100    -0.0650    -0.1430 ha         1 AQ0       0.121000
     33 H10         -4.4030    -1.6750    -1.1710 hc         1 AQ0       0.050450
     34 H11         -4.3740    -0.0870    -1.9190 hc         1 AQ0       0.050450
     35 H12         -2.0240     0.2810    -1.1640 hc         1 AQ0       0.058200
     36 H13         -2.1330    -1.2180    -2.0770 hc         1 AQ0       0.058200
     37 H15          1.6450     4.3120     0.2920 ha         1 AQ0       0.117000
     38 H16          4.1310     4.4420     0.1950 ha         1 AQ0       0.116000
     39 H17         -0.1100    -3.6810    -0.1310 ha         1 AQ0       0.212000
     40 H18          4.5110    -2.2750    -0.2320 ha         1 AQ0       0.139000
     41 N1          -4.9720     2.1800    -0.1820 n1         1 AQ0       0.229000
@<TRIPOS>BOND
     1     1     2 ar  
     2     1    19 ar  
     3     1    24 1   
     4     2     3 ar  
     5     2    11 ar  
     6     3     4 ar  
     7     3    10 ar  
     8     4    17 1   
     9     4    22 ar  
    10     5    20 1   
    11     5    21 2   
    12     5    22 1   
    13     6     7 1   
    14     6    13 1   
    15     6    16 1   
    16     6    25 1   
    17     7     8 1   
    18     7    26 1   
    19     7    27 1   
    20     8     9 1   
    21     8    28 1   
    22     8    29 1   
    23     9    12 1   
    24     9    15 1   
    25     9    30 1   
    26    10    18 ar  
    27    10    31 1   
    28    11    23 ar  
    29    11    32 1   
    30    12    13 1   
    31    12    33 1   
    32    12    34 1   
    33    13    35 1   
    34    13    36 1   
    35    14    41 3   
    36    15    41 1   
    37    16    17 1   
    38    16    20 2   
    39    18    19 ar  
    40    18    37 1   
    41    19    38 1   
    42    20    39 1   
    43    22    23 ar  
    44    23    40 1   
@<TRIPOS>SUBSTRUCTURE
     1 AQ0         1 TEMP              0 ****  ****    0 ROOT
