@<TRIPOS>MOLECULE
AQ0
   41    44     1     0     0
SMALL
abcg2


@<TRIPOS>ATOM
      1 C1           4.2140     2.3280     0.0210 ca         1 AQ0      -0.111000
      2 C2           3.6250     1.0460     0.0010 ca         1 AQ0       0.004000
      3 C3           2.2130     0.9450     0.0280 ca         1 AQ0      -0.061000
      4 C9           1.6490    -0.3600     0.0020 ca         1 AQ0       0.171100
      5 C10          1.7840    -2.8140    -0.0920 c          1 AQ0       0.595900
      6 C13         -1.8160    -1.4710     0.0380 c6         1 AQ0      -0.020500
      7 C14         -2.2960    -0.9580     1.4030 c6         1 AQ0      -0.064900
      8 C15         -3.8200    -0.9110     1.4460 c6         1 AQ0      -0.076400
      9 C16         -4.4040    -0.0750     0.3170 c6         1 AQ0       0.175500
     10 C4           1.4300     2.1180     0.0740 ca         1 AQ0      -0.072000
     11 C6           4.4180    -0.1340    -0.0490 ca         1 AQ0      -0.135000
     12 C17         -3.8870    -0.5500    -1.0380 c6         1 AQ0      -0.076400
     13 C18         -2.3640    -0.5940    -1.0940 c6         1 AQ0      -0.064900
     14 N2          -4.8740     3.0170    -0.7930 n1         1 AQ0      -0.084000
     15 N           -4.0230     1.3310     0.5850 n2         1 AQ0      -0.438200
     16 C12         -0.3310    -1.6010    -0.0100 cc         1 AQ0       0.142900
     17 O            0.3050    -0.4220     0.0300 os         1 AQ0      -0.208200
     18 C5           2.0340     3.3480     0.0910 ca         1 AQ0      -0.119000
     19 C            3.4370     3.4550     0.0640 ca         1 AQ0      -0.087000
     20 C11          0.3400    -2.7680    -0.0710 cd         1 AQ0      -0.386200
     21 O1           2.4270    -3.8560    -0.1430 o          1 AQ0      -0.547100
     22 C8           2.4250    -1.4960    -0.0530 ca         1 AQ0      -0.232600
     23 C7           3.8370    -1.3610    -0.0760 ca         1 AQ0      -0.035000
     24 H1           5.2940     2.4070    -0.0010 ha         1 AQ0       0.118000
     25 H2          -2.2090    -2.4840    -0.0990 hc         1 AQ0       0.066700
     26 H3          -1.9290    -1.6110     2.1970 hc         1 AQ0       0.058200
     27 H4          -1.8890     0.0380     1.5960 hc         1 AQ0       0.058200
     28 H5          -4.2200    -1.9240     1.3550 hc         1 AQ0       0.050450
     29 H6          -4.1590    -0.5240     2.4080 hc         1 AQ0       0.050450
     30 H7          -5.4950    -0.1530     0.3390 h1         1 AQ0       0.049700
     31 H8           0.3500     2.0530     0.0960 ha         1 AQ0       0.127000
     32 H9           5.4960    -0.0360    -0.0680 ha         1 AQ0       0.121000
     33 H10         -4.2940    -1.5500    -1.2180 hc         1 AQ0       0.050450
     34 H11         -4.2760     0.0790    -1.8430 hc         1 AQ0       0.050450
     35 H12         -1.9640     0.4190    -1.0130 hc         1 AQ0       0.058200
     36 H13         -2.0440    -0.9860    -2.0610 hc         1 AQ0       0.058200
     37 H15          1.4280     4.2430     0.1260 ha         1 AQ0       0.117000
     38 H16          3.9000     4.4330     0.0770 ha         1 AQ0       0.116000
     39 H17         -0.2230    -3.6910    -0.1030 ha         1 AQ0       0.212000
     40 H18          4.4430    -2.2560    -0.1160 ha         1 AQ0       0.139000
     41 N1          -4.4880     2.1710    -0.1590 n1         1 AQ0       0.229000
@<TRIPOS>BOND
     1     1     2 ar  
     2     1    19 ar  
     3     1    24 1   
     4     2     3 ar  
     5     2    11 ar  
     6     3     4 ar  
     7     3    10 ar  
     8     4    17 1   
     9     4    22 ar  
    10     5    20 1   
    11     5    21 2   
    12     5    22 1   
    13     6     7 1   
    14     6    13 1   
    15     6    16 1   
    16     6    25 1   
    17     7     8 1   
    18     7    26 1   
    19     7    27 1   
    20     8     9 1   
    21     8    28 1   
    22     8    29 1   
    23     9    12 1   
    24     9    15 1   
    25     9    30 1   
    26    10    18 ar  
    27    10    31 1   
    28    11    23 ar  
    29    11    32 1   
    30    12    13 1   
    31    12    33 1   
    32    12    34 1   
    33    13    35 1   
    34    13    36 1   
    35    14    41 3   
    36    15    41 1   
    37    16    17 1   
    38    16    20 2   
    39    18    19 ar  
    40    18    37 1   
    41    19    38 1   
    42    20    39 1   
    43    22    23 ar  
    44    23    40 1   
@<TRIPOS>SUBSTRUCTURE
     1 AQ0         1 TEMP              0 ****  ****    0 ROOT
