@<TRIPOS>MOLECULE
AQ1
   32    33     1     0     0
SMALL
No Charge or Current Charge


@<TRIPOS>ATOM
      1 N1           0.9070     0.1560     0.3220 nc         1 AQ1      -0.718300
      2 C4           3.0130    -0.8530    -0.1350 cd         1 AQ1      -0.402200
      3 C5           2.4010    -2.1210    -0.5000 c          1 AQ1       0.581200
      4 C6           0.3760    -0.9950    -0.0290 cd         1 AQ1       0.740800
      5 C7          -2.0380    -0.2160     0.1330 ca         1 AQ1       0.278000
      6 C8          -1.9300     1.1110    -0.3350 ca         1 AQ1      -0.107000
      7 C10         -4.2480     1.5550     0.2740 ca         1 AQ1      -0.109000
      8 C12         -3.2850    -0.6460     0.6550 ca         1 AQ1       0.107000
      9 C11         -4.3780     0.2330     0.7290 ca         1 AQ1      -0.118000
     10 C9          -3.0250     1.9920    -0.2610 ca         1 AQ1      -0.098000
     11 N2          -0.9650    -1.1260     0.0560 nu         1 AQ1      -0.909200
     12 N            1.0590    -2.0880    -0.4050 ns         1 AQ1      -0.443400
     13 O            3.0180    -3.1090    -0.8550 o          1 AQ1      -0.545000
     14 C3           2.2820     0.2430     0.2610 cc         1 AQ1       0.230400
     15 C2           2.9050     1.5620     0.6440 c3         1 AQ1      -0.034200
     16 C1           2.8980     2.5900    -0.5090 c3         1 AQ1      -0.070400
     17 C            3.5460     3.9360    -0.1260 c3         1 AQ1      -0.091100
     18 H1           4.0930    -0.8310    -0.1980 ha         1 AQ1       0.216000
     19 H2          -1.0020     1.4640    -0.7720 ha         1 AQ1       0.160000
     20 H3          -5.0940     2.2380     0.3290 ha         1 AQ1       0.122000
     21 H4          -5.3250    -0.1130     1.1380 ha         1 AQ1       0.134000
     22 H5          -2.9250     3.0120    -0.6250 ha         1 AQ1       0.122000
     23 H6          -1.2370    -2.0890     0.2200 hn         1 AQ1       0.511000
     24 H7           0.5730    -2.9280    -0.6680 hn         1 AQ1       0.325500
     25 H8           2.3750     1.9840     1.5070 hc         1 AQ1       0.057700
     26 H9           3.9390     1.3980     0.9720 hc         1 AQ1       0.057700
     27 H10          3.4290     2.1690    -1.3710 hc         1 AQ1       0.047200
     28 H11          1.8640     2.7700    -0.8280 hc         1 AQ1       0.047200
     29 H12          3.0140     4.3980     0.7130 hc         1 AQ1       0.033033
     30 H13          4.5940     3.7930     0.1630 hc         1 AQ1       0.033033
     31 H14          3.5160     4.6290    -0.9750 hc         1 AQ1       0.033033
     32 F           -3.4390    -1.9190     1.0960 f          1 AQ1      -0.191000
@<TRIPOS>BOND
     1     1     4 2   
     2     1    14 1   
     3     2     3 1   
     4     2    14 2   
     5     2    18 1   
     6     3    12 1   
     7     3    13 2   
     8     4    11 1   
     9     4    12 1   
    10     5     6 ar  
    11     5     8 ar  
    12     5    11 1   
    13     6    10 ar  
    14     6    19 1   
    15     7     9 ar  
    16     7    10 ar  
    17     7    20 1   
    18     8     9 ar  
    19     8    32 1   
    20     9    21 1   
    21    10    22 1   
    22    11    23 1   
    23    12    24 1   
    24    14    15 1   
    25    15    16 1   
    26    15    25 1   
    27    15    26 1   
    28    16    17 1   
    29    16    27 1   
    30    16    28 1   
    31    17    29 1   
    32    17    30 1   
    33    17    31 1   
@<TRIPOS>SUBSTRUCTURE
     1 AQ1         1 TEMP              0 ****  ****    0 ROOT
