@<TRIPOS>MOLECULE
AQ1
   32    33     1     0     0
SMALL
bcc


@<TRIPOS>ATOM
      1 N1           0.9770     0.1650     0.2820 nc         1 AQ1      -0.718300
      2 C4           3.1040    -0.9220     0.1400 cd         1 AQ1      -0.352200
      3 C5           2.4880    -2.1950    -0.0760 c          1 AQ1       0.723700
      4 C6           0.3980    -0.9800     0.0820 cd         1 AQ1       0.740800
      5 C7          -1.9350    -0.1320     0.1380 ca         1 AQ1       0.139600
      6 C8          -1.7230     1.2400     0.2820 ca         1 AQ1      -0.125000
      7 C10         -4.1050     1.6500     0.2950 ca         1 AQ1      -0.127000
      8 C12         -3.2620    -0.5650     0.0770 ca         1 AQ1       0.071900
      9 C11         -4.3380     0.2880     0.1510 ca         1 AQ1      -0.136000
     10 C9          -2.8010     2.1120     0.3580 ca         1 AQ1      -0.116000
     11 N2          -0.9490    -1.1120     0.0410 nu         1 AQ1      -0.715600
     12 N            1.0980    -2.1300    -0.0960 ns         1 AQ1      -0.510400
     13 O            3.0500    -3.2680    -0.2410 o          1 AQ1      -0.620500
     14 C3           2.3340     0.1900     0.3040 cc         1 AQ1       0.230400
     15 C2           2.9390     1.5450     0.5000 c3         1 AQ1      -0.034200
     16 C1           2.6430     2.4890    -0.6660 c3         1 AQ1      -0.070400
     17 C            3.2400     3.8710    -0.4460 c3         1 AQ1      -0.091100
     18 H1           4.1830    -0.8640     0.1650 ha         1 AQ1       0.166000
     19 H2          -0.7150     1.6170     0.3350 ha         1 AQ1       0.178000
     20 H3          -4.9390     2.3350     0.3550 ha         1 AQ1       0.140000
     21 H4          -5.3420    -0.1120     0.0950 ha         1 AQ1       0.152000
     22 H5          -2.6070     3.1710     0.4680 ha         1 AQ1       0.140000
     23 H6          -1.2950    -2.0500    -0.0930 hn         1 AQ1       0.455800
     24 H7           0.6080    -3.0000    -0.2690 hn         1 AQ1       0.325500
     25 H8           2.5370     1.9760     1.4220 hc         1 AQ1       0.057700
     26 H9           4.0190     1.4490     0.6340 hc         1 AQ1       0.057700
     27 H10          3.0400     2.0570    -1.5890 hc         1 AQ1       0.047200
     28 H11          1.5620     2.5690    -0.8010 hc         1 AQ1       0.047200
     29 H12          2.8330     4.3390     0.4530 hc         1 AQ1       0.033033
     30 H13          4.3240     3.8210    -0.3290 hc         1 AQ1       0.033033
     31 H14          3.0280     4.5310    -1.2870 hc         1 AQ1       0.033033
     32 F           -3.4820    -1.8870    -0.0660 f          1 AQ1      -0.155900
@<TRIPOS>BOND
     1     1     4 2   
     2     1    14 1   
     3     2     3 1   
     4     2    14 2   
     5     2    18 1   
     6     3    12 1   
     7     3    13 2   
     8     4    11 1   
     9     4    12 1   
    10     5     6 ar  
    11     5     8 ar  
    12     5    11 1   
    13     6    10 ar  
    14     6    19 1   
    15     7     9 ar  
    16     7    10 ar  
    17     7    20 1   
    18     8     9 ar  
    19     8    32 1   
    20     9    21 1   
    21    10    22 1   
    22    11    23 1   
    23    12    24 1   
    24    14    15 1   
    25    15    16 1   
    26    15    25 1   
    27    15    26 1   
    28    16    17 1   
    29    16    27 1   
    30    16    28 1   
    31    17    29 1   
    32    17    30 1   
    33    17    31 1   
@<TRIPOS>SUBSTRUCTURE
     1 AQ1         1 TEMP              0 ****  ****    0 ROOT
