@<TRIPOS>MOLECULE
AQ2
   55    58     1     0     0
SMALL
abcg2


@<TRIPOS>ATOM
      1 C01          6.9970     0.7290    -2.9430 c3         1 AQ2      -0.089100
      2 C02          6.5600    -0.4210    -2.0330 c3         1 AQ2      -0.011500
      3 C03          7.7690    -1.1180    -1.4060 c3         1 AQ2      -0.089100
      4 C04          5.5950     0.0390    -0.9890 cc         1 AQ2      -0.035300
      5 C05          4.2950    -0.3370    -0.7890 cd         1 AQ2      -0.241200
      6 C06          3.8180     0.3810     0.3480 ca         1 AQ2      -0.114800
      7 C07          2.6320     0.4390     1.0870 cp         1 AQ2       0.022000
      8 C08          2.6290     1.2750     2.2000 ca         1 AQ2      -0.180000
      9 C09          3.7620     2.0180     2.5310 ca         1 AQ2       0.352900
     10 N01          4.8990     1.9860     1.8470 nb         1 AQ2      -0.673000
     11 C10          4.8960     1.1800     0.8010 ca         1 AQ2       0.368500
     12 N02          5.9490     0.9560    -0.0330 na         1 AQ2      -0.322400
     13 C11          1.4410    -0.3450     0.7190 cp         1 AQ2       0.024000
     14 C12          0.7260    -1.0450     1.6940 ca         1 AQ2      -0.117000
     15 C13         -0.3940    -1.7810     1.3580 ca         1 AQ2      -0.021000
     16 C14         -0.8180    -1.8060     0.0340 ca         1 AQ2      -0.309500
     17 C15         -0.1270    -1.1190    -0.9520 ca         1 AQ2      -0.021000
     18 C16          1.0040    -0.3960    -0.6040 ca         1 AQ2      -0.117000
     19 S01         -2.2990    -2.6930    -0.3680 sy         1 AQ2       1.169600
     20 O01         -2.4250    -2.7040    -1.8150 o          1 AQ2      -0.531000
     21 O02         -2.2910    -3.9400     0.3780 o          1 AQ2      -0.531000
     22 N1          -3.5610    -1.8320     0.2260 n7         1 AQ2      -0.894300
     23 C17         -3.9090    -0.5090    -0.2800 c6         1 AQ2       0.222500
     24 C18         -5.4340    -0.3940    -0.2650 c6         1 AQ2      -0.074900
     25 C19         -5.9360     0.9180    -0.8510 c6         1 AQ2      -0.297900
     26 S           -5.3010     2.3180     0.0590 s6         1 AQ2       1.080000
     27 O03         -5.5980     3.5540    -0.6650 o          1 AQ2      -0.514000
     28 O1          -5.7450     2.2080     1.4500 o          1 AQ2      -0.514000
     29 C20         -3.5450     1.9940    -0.0040 c6         1 AQ2      -0.297900
     30 C1          -3.2240     0.6030     0.5210 c6         1 AQ2      -0.074900
     31 H011         7.6360     0.3540    -3.7430 hc         1 AQ2       0.039533
     32 H012         6.1400     1.2240    -3.3990 hc         1 AQ2       0.039533
     33 H013         7.5690     1.4820    -2.3970 hc         1 AQ2       0.039533
     34 H02          6.0230    -1.1510    -2.6430 hc         1 AQ2       0.067700
     35 H031         8.3740    -0.4250    -0.8180 hc         1 AQ2       0.039533
     36 H032         7.4650    -1.9370    -0.7540 hc         1 AQ2       0.039533
     37 H033         8.4120    -1.5300    -2.1850 hc         1 AQ2       0.039533
     38 H05          3.7590    -1.0550    -1.3890 ha         1 AQ2       0.210000
     39 HA           6.8510     1.3970     0.0590 hn         1 AQ2       0.362000
     40 H08          1.7400     1.3770     2.8080 ha         1 AQ2       0.122000
     41 H09          3.7370     2.6730     3.3940 h4         1 AQ2       0.022100
     42 H12          1.0600    -1.0310     2.7230 ha         1 AQ2       0.127000
     43 H16          1.5320     0.1520    -1.3720 ha         1 AQ2       0.127000
     44 H13         -0.9260    -2.3250     2.1270 ha         1 AQ2       0.134500
     45 H15         -0.4590    -1.1340    -1.9800 ha         1 AQ2       0.134500
     46 H1          -3.7120    -1.9700     1.2200 hn         1 AQ2       0.493000
     47 H17         -3.5790    -0.4530    -1.3210 h1         1 AQ2       0.079700
     48 H181        -5.8570    -1.2080    -0.8540 hc         1 AQ2       0.071200
     49 H182        -5.8060    -0.5140     0.7560 hc         1 AQ2       0.071200
     50 H11C        -3.5020     0.5250     1.5750 hc         1 AQ2       0.071200
     51 H12C        -2.1410     0.4820     0.4760 hc         1 AQ2       0.071200
     52 H191        -5.6220     1.0460    -1.8890 h1         1 AQ2       0.107450
     53 H192        -7.0250     0.9900    -0.8100 h1         1 AQ2       0.107450
     54 H201        -3.2370     2.1200    -1.0430 h1         1 AQ2       0.107450
     55 H202        -3.0660     2.7730     0.5930 h1         1 AQ2       0.107450
@<TRIPOS>BOND
     1     1     2 1   
     2     1    31 1   
     3     1    32 1   
     4     1    33 1   
     5     2     3 1   
     6     2     4 1   
     7     2    34 1   
     8     3    35 1   
     9     3    36 1   
    10     3    37 1   
    11     4     5 2   
    12     4    12 1   
    13     5     6 1   
    14     5    38 1   
    15     6     7 ar  
    16     6    11 ar  
    17     7     8 ar  
    18     7    13 1   
    19     8     9 ar  
    20     8    40 1   
    21     9    10 ar  
    22     9    41 1   
    23    10    11 ar  
    24    11    12 1   
    25    12    39 1   
    26    13    14 ar  
    27    13    18 ar  
    28    14    15 ar  
    29    14    42 1   
    30    15    16 ar  
    31    15    44 1   
    32    16    17 ar  
    33    16    19 1   
    34    17    18 ar  
    35    17    45 1   
    36    18    43 1   
    37    19    20 2   
    38    19    21 2   
    39    19    22 1   
    40    22    23 1   
    41    22    46 1   
    42    23    24 1   
    43    23    30 1   
    44    23    47 1   
    45    24    25 1   
    46    24    48 1   
    47    24    49 1   
    48    25    26 1   
    49    25    52 1   
    50    25    53 1   
    51    26    27 2   
    52    26    28 2   
    53    26    29 1   
    54    29    30 1   
    55    29    54 1   
    56    29    55 1   
    57    30    50 1   
    58    30    51 1   
@<TRIPOS>SUBSTRUCTURE
     1 AQ2         1 TEMP              0 ****  ****    0 ROOT
