@<TRIPOS>MOLECULE
AQ2
   55    58     1     0     0
SMALL
No Charge or Current Charge


@<TRIPOS>ATOM
      1 C01          6.4750     0.9330    -3.2010 c3         1 AQ2      -0.089100
      2 C02          6.1760    -0.2600    -2.2680 c3         1 AQ2      -0.011500
      3 C03          7.4680    -0.9900    -1.8420 c3         1 AQ2      -0.089100
      4 C04          5.3580     0.1610    -1.0740 cc         1 AQ2      -0.035300
      5 C05          4.0910    -0.2220    -0.6810 cd         1 AQ2      -0.241200
      6 C06          3.7100     0.4420     0.5460 ca         1 AQ2      -0.114800
      7 C07          2.5450     0.3800     1.3430 cp         1 AQ2       0.022000
      8 C08          2.5920     1.1690     2.5180 ca         1 AQ2      -0.180000
      9 C09          3.7340     1.9450     2.8060 ca         1 AQ2       0.352900
     10 N01          4.8290     1.9820     2.0070 nb         1 AQ2      -0.673000
     11 C10          4.7910     1.2270     0.8950 ca         1 AQ2       0.368500
     12 N02          5.7620     1.0650    -0.0750 na         1 AQ2      -0.322400
     13 C11          1.3500    -0.4470     0.9940 cp         1 AQ2       0.024000
     14 C12          0.6810    -1.2040     1.9850 ca         1 AQ2      -0.117000
     15 C13         -0.4510    -1.9750     1.6710 ca         1 AQ2      -0.021000
     16 C14         -0.9460    -1.9960     0.3510 ca         1 AQ2      -0.309500
     17 C15         -0.2910    -1.2490    -0.6490 ca         1 AQ2      -0.021000
     18 C16          0.8400    -0.4810    -0.3260 ca         1 AQ2      -0.117000
     19 S01         -2.4120    -2.9610    -0.0450 sy         1 AQ2       1.169600
     20 O01         -2.5630    -3.1090    -1.4950 o          1 AQ2      -0.531000
     21 O02         -2.5130    -4.1060     0.8610 o          1 AQ2      -0.531000
     22 N1          -3.6390    -1.9350     0.4460 n7         1 AQ2      -0.894300
     23 C17         -3.6420    -0.5990    -0.1840 c6         1 AQ2       0.222500
     24 C18         -5.0640    -0.3170    -0.7390 c6         1 AQ2      -0.074900
     25 C19         -5.1660     1.0450    -1.4870 c6         1 AQ2      -0.297900
     26 S           -4.7670     2.4720    -0.4380 s6         1 AQ2       1.080000
     27 O03         -4.5580     3.6470    -1.2920 o          1 AQ2      -0.514000
     28 O1          -5.7280     2.5300     0.6710 o          1 AQ2      -0.514000
     29 C20         -3.1620     1.9180     0.2050 c6         1 AQ2      -0.297900
     30 C1          -3.2080     0.4950     0.8350 c6         1 AQ2      -0.074900
     31 H011         7.0090     0.5990    -4.0990 hc         1 AQ2       0.039533
     32 H012         5.5420     1.4140    -3.5190 hc         1 AQ2       0.039533
     33 H013         7.0920     1.6840    -2.6930 hc         1 AQ2       0.039533
     34 H02          5.5800    -0.9770    -2.8470 hc         1 AQ2       0.067700
     35 H031         8.1290    -0.3220    -1.2770 hc         1 AQ2       0.039533
     36 H032         7.2300    -1.8540    -1.2090 hc         1 AQ2       0.039533
     37 H033         8.0160    -1.3530    -2.7200 hc         1 AQ2       0.039533
     38 H05          3.4840    -0.9430    -1.2210 ha         1 AQ2       0.210000
     39 HA           6.6520     1.5420    -0.0470 hn         1 AQ2       0.362000
     40 H08          1.7470     1.1950     3.1980 ha         1 AQ2       0.122000
     41 H09          3.7710     2.5590     3.7060 h4         1 AQ2       0.022100
     42 H12          1.0510    -1.2000     3.0070 ha         1 AQ2       0.127000
     43 H16          1.3170     0.1090    -1.1030 ha         1 AQ2       0.127000
     44 H13         -0.9380    -2.5500     2.4580 ha         1 AQ2       0.134500
     45 H15         -0.6560    -1.2510    -1.6750 ha         1 AQ2       0.134500
     46 H1          -3.4090    -1.8380     1.4320 hn         1 AQ2       0.493000
     47 H17         -2.9510    -0.5700    -1.0410 h1         1 AQ2       0.079700
     48 H181        -5.3460    -1.1250    -1.4280 hc         1 AQ2       0.071200
     49 H182        -5.7960    -0.3510     0.0820 hc         1 AQ2       0.071200
     50 H11C        -3.8910     0.4940     1.6970 hc         1 AQ2       0.071200
     51 H12C        -2.2130     0.2620     1.2370 hc         1 AQ2       0.071200
     52 H191        -4.4660     1.0870    -2.3310 h1         1 AQ2       0.107450
     53 H192        -6.1840     1.2220    -1.8560 h1         1 AQ2       0.107450
     54 H201        -2.4670     1.9540    -0.6440 h1         1 AQ2       0.107450
     55 H202        -2.8610     2.6710     0.9450 h1         1 AQ2       0.107450
@<TRIPOS>BOND
     1     1     2 1   
     2     1    31 1   
     3     1    32 1   
     4     1    33 1   
     5     2     3 1   
     6     2     4 1   
     7     2    34 1   
     8     3    35 1   
     9     3    36 1   
    10     3    37 1   
    11     4     5 2   
    12     4    12 1   
    13     5     6 1   
    14     5    38 1   
    15     6     7 ar  
    16     6    11 ar  
    17     7     8 ar  
    18     7    13 1   
    19     8     9 ar  
    20     8    40 1   
    21     9    10 ar  
    22     9    41 1   
    23    10    11 ar  
    24    11    12 1   
    25    12    39 1   
    26    13    14 ar  
    27    13    18 ar  
    28    14    15 ar  
    29    14    42 1   
    30    15    16 ar  
    31    15    44 1   
    32    16    17 ar  
    33    16    19 1   
    34    17    18 ar  
    35    17    45 1   
    36    18    43 1   
    37    19    20 2   
    38    19    21 2   
    39    19    22 1   
    40    22    23 1   
    41    22    46 1   
    42    23    24 1   
    43    23    30 1   
    44    23    47 1   
    45    24    25 1   
    46    24    48 1   
    47    24    49 1   
    48    25    26 1   
    49    25    52 1   
    50    25    53 1   
    51    26    27 2   
    52    26    28 2   
    53    26    29 1   
    54    29    30 1   
    55    29    54 1   
    56    29    55 1   
    57    30    50 1   
    58    30    51 1   
@<TRIPOS>SUBSTRUCTURE
     1 AQ2         1 TEMP              0 ****  ****    0 ROOT
