@<TRIPOS>MOLECULE
AQ4
   52    54     1     0     0
SMALL
No Charge or Current Charge


@<TRIPOS>ATOM
      1 C1          -8.0540     0.9180     1.7240 c1         1 AQ4      -0.224000
      2 C2          -7.2520     0.3090     1.0430 cg         1 AQ4      -0.128000
      3 C3          -6.2980    -0.4030     0.2420 ca         1 AQ4       0.052000
      4 C4          -4.9530     0.0100     0.2150 ca         1 AQ4      -0.108000
      5 C5          -4.0100    -0.6820    -0.5690 ca         1 AQ4       0.308000
      6 N1          -2.6600    -0.3190    -0.6150 nu         1 AQ4      -0.931900
      7 C6          -1.9600     0.8730    -0.4130 ca         1 AQ4       0.404900
      8 C7          -0.5470     0.8970    -0.2780 ca         1 AQ4      -0.166000
      9 C8           0.2450    -0.2770    -0.2840 ca         1 AQ4      -0.166000
     10 C9           1.6490    -0.1900    -0.1430 ca         1 AQ4       0.125100
     11 O1           2.4560    -1.3170    -0.1420 os         1 AQ4      -0.307100
     12 C10          1.9300    -2.6510    -0.2880 c3         1 AQ4       0.158600
     13 C11          3.1060    -3.6520    -0.2480 c3         1 AQ4       0.159600
     14 O2           3.6260    -3.7130     1.0960 os         1 AQ4      -0.440000
     15 C12          4.7390    -4.6060     1.2640 c3         1 AQ4       0.144900
     16 C13          2.2600     1.0760     0.0060 ca         1 AQ4       0.165100
     17 O3           3.6380     1.1330     0.1410 os         1 AQ4      -0.307100
     18 C14          4.3530     2.3740     0.3030 c3         1 AQ4       0.157600
     19 C15          5.8610     2.0620     0.4260 c3         1 AQ4       0.158600
     20 O4           6.3560     1.6310    -0.8580 os         1 AQ4      -0.441000
     21 C16          7.7540     1.2970    -0.8760 c3         1 AQ4       0.145900
     22 C17          1.4640     2.2420     0.0150 ca         1 AQ4      -0.192000
     23 C18          0.0690     2.1630    -0.1250 ca         1 AQ4       0.065000
     24 N2          -0.6730     3.2900    -0.1120 nb         1 AQ4      -0.203000
     25 C19         -2.0050     3.1560    -0.2540 ca         1 AQ4       0.162900
     26 N3          -2.6830     2.0050    -0.4090 nb         1 AQ4      -0.273000
     27 C20         -4.4220    -1.8050    -1.3060 ca         1 AQ4      -0.169000
     28 C21         -5.7650    -2.2220    -1.2840 ca         1 AQ4      -0.084000
     29 C22         -6.7030    -1.5180    -0.5130 ca         1 AQ4      -0.118000
     30 H1          -8.7660     1.4520     2.3210 ha         1 AQ4       0.257000
     31 H2          -4.6450     0.8550     0.8200 ha         1 AQ4       0.162000
     32 H3          -2.0560    -1.0670    -0.9440 hn         1 AQ4       0.495000
     33 H4          -0.2290    -1.2470    -0.3880 ha         1 AQ4       0.110000
     34 H5           1.2220    -2.8870     0.5160 h1         1 AQ4       0.040700
     35 H6           1.4120    -2.7530    -1.2500 h1         1 AQ4       0.040700
     36 H7           2.7420    -4.6390    -0.5610 h1         1 AQ4       0.034200
     37 H8           3.8820    -3.3340    -0.9580 h1         1 AQ4       0.034200
     38 H9           4.4570    -5.6350     1.0030 h1         1 AQ4       0.029700
     39 H10          5.5810    -4.3040     0.6290 h1         1 AQ4       0.029700
     40 H11          5.0780    -4.6000     2.3080 h1         1 AQ4       0.029700
     41 H12          4.1870     3.0410    -0.5520 h1         1 AQ4       0.049200
     42 H13          4.0230     2.8870     1.2150 h1         1 AQ4       0.049200
     43 H14          6.3850     2.9700     0.7510 h1         1 AQ4       0.035200
     44 H15          6.0140     1.2870     1.1890 h1         1 AQ4       0.035200
     45 H16          8.3660     2.1630    -0.5920 h1         1 AQ4       0.029033
     46 H17          7.9670     0.4750    -0.1800 h1         1 AQ4       0.029033
     47 H18          8.0570     0.9790    -1.8820 h1         1 AQ4       0.029033
     48 H19          1.9130     3.2240     0.1290 ha         1 AQ4       0.142000
     49 H20         -2.5920     4.0730    -0.2460 h5         1 AQ4       0.046100
     50 H21         -3.7030    -2.3560    -1.9070 ha         1 AQ4       0.106000
     51 H22         -6.0760    -3.0880    -1.8640 ha         1 AQ4       0.114000
     52 H23         -7.7410    -1.8420    -0.4960 ha         1 AQ4       0.122000
@<TRIPOS>BOND
     1     1     2 3   
     2     1    30 1   
     3     2     3 1   
     4     3     4 ar  
     5     3    29 ar  
     6     4     5 ar  
     7     4    31 1   
     8     5     6 1   
     9     5    27 ar  
    10     6     7 1   
    11     6    32 1   
    12     7     8 ar  
    13     7    26 ar  
    14     8     9 ar  
    15     8    23 ar  
    16     9    10 ar  
    17     9    33 1   
    18    10    11 1   
    19    10    16 ar  
    20    11    12 1   
    21    12    13 1   
    22    12    34 1   
    23    12    35 1   
    24    13    14 1   
    25    13    36 1   
    26    13    37 1   
    27    14    15 1   
    28    15    38 1   
    29    15    39 1   
    30    15    40 1   
    31    16    17 1   
    32    16    22 ar  
    33    17    18 1   
    34    18    19 1   
    35    18    41 1   
    36    18    42 1   
    37    19    20 1   
    38    19    43 1   
    39    19    44 1   
    40    20    21 1   
    41    21    45 1   
    42    21    46 1   
    43    21    47 1   
    44    22    23 ar  
    45    22    48 1   
    46    23    24 ar  
    47    24    25 ar  
    48    25    26 ar  
    49    25    49 1   
    50    27    28 ar  
    51    27    50 1   
    52    28    29 ar  
    53    28    51 1   
    54    29    52 1   
@<TRIPOS>SUBSTRUCTURE
     1 AQ4         1 TEMP              0 ****  ****    0 ROOT
