@<TRIPOS>MOLECULE
AQ4
   52    54     1     0     0
SMALL
abcg2


@<TRIPOS>ATOM
      1 C1          -8.2680     1.5220     0.2150 c1         1 AQ4      -0.224000
      2 C2          -7.3820     0.7210     0.0690 cg         1 AQ4      -0.128000
      3 C3          -6.3320    -0.2330    -0.1030 ca         1 AQ4       0.052000
      4 C4          -5.0060     0.2060    -0.0770 ca         1 AQ4      -0.108000
      5 C5          -3.9700    -0.7120    -0.2370 ca         1 AQ4       0.308000
      6 N1          -2.6120    -0.4020    -0.2230 nu         1 AQ4      -0.931900
      7 C6          -1.9620     0.7750    -0.0390 ca         1 AQ4       0.404900
      8 C7          -0.5290     0.7880    -0.0190 ca         1 AQ4      -0.166000
      9 C8           0.2960    -0.3480    -0.1820 ca         1 AQ4      -0.166000
     10 C9           1.6590    -0.2380    -0.1220 ca         1 AQ4       0.125100
     11 O1           2.5280    -1.2480    -0.2530 os         1 AQ4      -0.307100
     12 C10          2.0200    -2.5510    -0.4820 c3         1 AQ4       0.158600
     13 C11          3.1780    -3.5110    -0.5490 c3         1 AQ4       0.159600
     14 O2           3.8030    -3.5770     0.7040 os         1 AQ4      -0.440000
     15 C12          4.8800    -4.4790     0.7220 c3         1 AQ4       0.144900
     16 C13          2.2600     1.0420     0.1000 ca         1 AQ4       0.165100
     17 O3           3.5920     1.0310     0.1420 os         1 AQ4      -0.307100
     18 C14          4.2760     2.2550     0.3700 c3         1 AQ4       0.157600
     19 C15          5.7540     1.9730     0.4030 c3         1 AQ4       0.158600
     20 O4           6.1800     1.5490    -0.8640 os         1 AQ4      -0.441000
     21 C16          7.5540     1.2570    -0.8990 c3         1 AQ4       0.145900
     22 C17          1.4680     2.1500     0.2500 ca         1 AQ4      -0.192000
     23 C18          0.0620     2.0440     0.1950 ca         1 AQ4       0.065000
     24 N2          -0.6770     3.1730     0.3580 nb         1 AQ4      -0.203000
     25 C19         -1.9680     3.0220     0.3100 ca         1 AQ4       0.162900
     26 N3          -2.6510     1.8850     0.1230 nb         1 AQ4      -0.273000
     27 C20         -4.2870    -2.0640    -0.4220 ca         1 AQ4      -0.169000
     28 C21         -5.6020    -2.4860    -0.4480 ca         1 AQ4      -0.084000
     29 C22         -6.6390    -1.5800    -0.2890 ca         1 AQ4      -0.118000
     30 H1          -9.0550     2.2290     0.3450 ha         1 AQ4       0.257000
     31 H2          -4.7940     1.2520     0.0680 ha         1 AQ4       0.162000
     32 H3          -2.0240    -1.2080    -0.3540 hn         1 AQ4       0.495000
     33 H4          -0.1370    -1.3230    -0.3590 ha         1 AQ4       0.110000
     34 H5           1.3320    -2.8440     0.3190 h1         1 AQ4       0.040700
     35 H6           1.4690    -2.5890    -1.4290 h1         1 AQ4       0.040700
     36 H7           2.7800    -4.4900    -0.8520 h1         1 AQ4       0.034200
     37 H8           3.8830    -3.1990    -1.3330 h1         1 AQ4       0.034200
     38 H9           4.5640    -5.5030     0.4920 h1         1 AQ4       0.029700
     39 H10          5.6630    -4.1990     0.0060 h1         1 AQ4       0.029700
     40 H11          5.3110    -4.4680     1.7220 h1         1 AQ4       0.029700
     41 H12          4.0410     2.9790    -0.4170 h1         1 AQ4       0.049200
     42 H13          3.9760     2.6900     1.3290 h1         1 AQ4       0.049200
     43 H14          6.2620     2.8980     0.7090 h1         1 AQ4       0.035200
     44 H15          5.9750     1.2200     1.1720 h1         1 AQ4       0.035200
     45 H16          8.1680     2.1300    -0.6460 h1         1 AQ4       0.029033
     46 H17          7.8210     0.4490    -0.2080 h1         1 AQ4       0.029033
     47 H18          7.8050     0.9410    -1.9110 h1         1 AQ4       0.029033
     48 H19          1.8880     3.1320     0.4190 ha         1 AQ4       0.142000
     49 H20         -2.5760     3.9120     0.4380 h5         1 AQ4       0.046100
     50 H21         -3.4910    -2.7900    -0.5430 ha         1 AQ4       0.106000
     51 H22         -5.8190    -3.5360    -0.5920 ha         1 AQ4       0.114000
     52 H23         -7.6690    -1.9080    -0.3090 ha         1 AQ4       0.122000
@<TRIPOS>BOND
     1     1     2 3   
     2     1    30 1   
     3     2     3 1   
     4     3     4 ar  
     5     3    29 ar  
     6     4     5 ar  
     7     4    31 1   
     8     5     6 1   
     9     5    27 ar  
    10     6     7 1   
    11     6    32 1   
    12     7     8 ar  
    13     7    26 ar  
    14     8     9 ar  
    15     8    23 ar  
    16     9    10 ar  
    17     9    33 1   
    18    10    11 1   
    19    10    16 ar  
    20    11    12 1   
    21    12    13 1   
    22    12    34 1   
    23    12    35 1   
    24    13    14 1   
    25    13    36 1   
    26    13    37 1   
    27    14    15 1   
    28    15    38 1   
    29    15    39 1   
    30    15    40 1   
    31    16    17 1   
    32    16    22 ar  
    33    17    18 1   
    34    18    19 1   
    35    18    41 1   
    36    18    42 1   
    37    19    20 1   
    38    19    43 1   
    39    19    44 1   
    40    20    21 1   
    41    21    45 1   
    42    21    46 1   
    43    21    47 1   
    44    22    23 ar  
    45    22    48 1   
    46    23    24 ar  
    47    24    25 ar  
    48    25    26 ar  
    49    25    49 1   
    50    27    28 ar  
    51    27    50 1   
    52    28    29 ar  
    53    28    51 1   
    54    29    52 1   
@<TRIPOS>SUBSTRUCTURE
     1 AQ4         1 TEMP              0 ****  ****    0 ROOT
