@<TRIPOS>MOLECULE
AQ5
   50    54     1     0     0
SMALL
bcc


@<TRIPOS>ATOM
      1 C4          -2.1060     1.5930     0.1850 ca         1 AQ5       0.545100
      2 C5          -2.7790     2.6740    -0.3900 ca         1 AQ5      -0.373600
      3 C6          -2.2590     3.9330    -0.1680 ca         1 AQ5       0.430200
      4 N1          -1.1550     4.1330     0.5480 nb         1 AQ5      -0.706000
      5 N3          -0.9970     1.7950     0.8990 nb         1 AQ5      -0.683000
      6 CAV          2.7020     0.7740     0.7730 c6         1 AQ5      -0.064400
      7 CAW          3.1940     0.0430     2.0190 c6         1 AQ5      -0.074400
      8 CAX          4.5920    -0.5210     1.8030 c6         1 AQ5      -0.078400
      9 CAY          4.6100    -1.3910     0.5570 c6         1 AQ5       0.171800
     10 NAZ          4.1630    -0.6160    -0.5890 n7         1 AQ5      -0.820200
     11 CAO          2.8150    -0.0630    -0.5080 c6         1 AQ5       0.197200
     12 CAP          1.7510    -1.1760    -0.5290 c6         1 AQ5       0.163800
     13 CAN          2.6110     0.8150    -1.7440 c6         1 AQ5      -0.069400
     14 CAM          1.1810     1.3200    -1.8590 c6         1 AQ5      -0.078400
     15 CAL          0.1840     0.1800    -1.7770 c6         1 AQ5       0.202800
     16 NAK          0.4020    -0.6450    -0.5910 nh         1 AQ5      -0.624000
     17 CAG         -0.6330    -1.4950    -0.2510 ca         1 AQ5       0.248600
     18 CAF         -1.9480    -1.0340    -0.0050 ca         1 AQ5      -0.191100
     19 CAH         -0.4590    -2.8810    -0.1540 ca         1 AQ5      -0.353300
     20 CAI         -1.5370    -3.7310     0.0800 ca         1 AQ5       0.450200
     21 NAJ         -2.7920    -3.3350     0.2100 nb         1 AQ5      -0.704000
     22 CAE         -2.9450    -2.0190     0.1620 ca         1 AQ5       0.441800
     23 NAD         -4.1460    -1.3860     0.2920 na         1 AQ5      -0.265100
     24 CAC         -3.9590    -0.0470     0.2460 cc         1 AQ5      -0.087100
     25 CAB         -2.6260     0.2350     0.0800 cd         1 AQ5      -0.215000
     26 C2          -0.5830     3.0430     1.0350 ca         1 AQ5       0.639900
     27 H1          -3.6620     2.5350    -0.9980 ha         1 AQ5       0.149000
     28 H2          -2.7400     4.8100    -0.5850 h4         1 AQ5       0.022100
     29 H3           1.6670     1.0860     0.9160 hc         1 AQ5       0.056700
     30 H4           3.2980     1.6830     0.6420 hc         1 AQ5       0.056700
     31 H5           3.1820     0.7280     2.8700 hc         1 AQ5       0.040700
     32 H6           2.5100    -0.7720     2.2800 hc         1 AQ5       0.040700
     33 H7           5.3070     0.2980     1.6800 hc         1 AQ5       0.045200
     34 H8           4.9150    -1.1040     2.6680 hc         1 AQ5       0.045200
     35 H9           5.6240    -1.7390     0.3510 h1         1 AQ5       0.025700
     36 H10          4.0080    -2.2940     0.7470 h1         1 AQ5       0.025700
     37 H11          4.2480    -1.1710    -1.4330 hn         1 AQ5       0.354800
     38 H13          1.9590    -1.8380    -1.3880 h1         1 AQ5       0.037200
     39 H14          1.8400    -1.7890     0.3680 h1         1 AQ5       0.037200
     40 H15          3.3150     1.6510    -1.7180 hc         1 AQ5       0.047200
     41 H16          2.8580     0.2270    -2.6370 hc         1 AQ5       0.047200
     42 H17          0.9760     2.0510    -1.0760 hc         1 AQ5       0.050200
     43 H18          1.0410     1.8360    -2.8110 hc         1 AQ5       0.050200
     44 H19         -0.8310     0.5710    -1.7800 h1         1 AQ5       0.039200
     45 H20          0.2770    -0.4480    -2.6760 h1         1 AQ5       0.039200
     46 H21          0.5090    -3.3310    -0.3170 ha         1 AQ5       0.139000
     47 H22         -1.3600    -4.8000     0.1240 h4         1 AQ5       0.016100
     48 H23         -5.0270    -1.8480     0.4530 hn         1 AQ5       0.313700
     49 H24         -4.7840     0.6330     0.3890 h4         1 AQ5       0.168000
     50 H25          0.3240     3.1890     1.6130 h5         1 AQ5       0.048100
@<TRIPOS>BOND
     1     1     2 ar  
     2     1     5 ar  
     3     1    25 1   
     4     2     3 ar  
     5     2    27 1   
     6     3     4 ar  
     7     3    28 1   
     8     4    26 ar  
     9     5    26 ar  
    10     6     7 1   
    11     6    11 1   
    12     6    29 1   
    13     6    30 1   
    14     7     8 1   
    15     7    31 1   
    16     7    32 1   
    17     8     9 1   
    18     8    33 1   
    19     8    34 1   
    20     9    10 1   
    21     9    35 1   
    22     9    36 1   
    23    10    11 1   
    24    10    37 1   
    25    11    12 1   
    26    11    13 1   
    27    12    16 1   
    28    12    38 1   
    29    12    39 1   
    30    13    14 1   
    31    13    40 1   
    32    13    41 1   
    33    14    15 1   
    34    14    42 1   
    35    14    43 1   
    36    15    16 1   
    37    15    44 1   
    38    15    45 1   
    39    16    17 1   
    40    17    18 ar  
    41    17    19 ar  
    42    18    22 ar  
    43    18    25 1   
    44    19    20 ar  
    45    19    46 1   
    46    20    21 ar  
    47    20    47 1   
    48    21    22 ar  
    49    22    23 1   
    50    23    24 1   
    51    23    48 1   
    52    24    25 2   
    53    24    49 1   
    54    26    50 1   
@<TRIPOS>SUBSTRUCTURE
     1 AQ5         1 TEMP              0 ****  ****    0 ROOT
