@<TRIPOS>MOLECULE
AQ5
   50    54     1     0     0
SMALL
No Charge or Current Charge


@<TRIPOS>ATOM
      1 C4          -2.0670     1.5050     0.1950 ca         1 AQ5       0.216800
      2 C5          -2.7030     2.6760    -0.2650 ca         1 AQ5      -0.225000
      3 C6          -2.1110     3.9130     0.0360 ca         1 AQ5       0.101900
      4 N1          -0.9930     3.9920     0.7820 nb         1 AQ5      -0.180000
      5 N3          -0.9670     1.5860     0.9730 nb         1 AQ5      -0.157000
      6 CAV          2.7780     0.9240     0.7130 c6         1 AQ5      -0.064400
      7 CAW          3.2380     0.2420     2.0270 c6         1 AQ5      -0.074400
      8 CAX          4.6400    -0.3800     1.8440 c6         1 AQ5      -0.078400
      9 CAY          4.6780    -1.3120     0.6120 c6         1 AQ5       0.171800
     10 NAZ          4.2220    -0.6080    -0.6130 n7         1 AQ5      -0.875400
     11 CAO          2.8460    -0.0260    -0.5300 c6         1 AQ5       0.197200
     12 CAP          1.7500    -1.1630    -0.4450 c6         1 AQ5       0.163800
     13 CAN          2.6070     0.7790    -1.8430 c6         1 AQ5      -0.069400
     14 CAM          1.1420     1.2600    -1.9840 c6         1 AQ5      -0.078400
     15 CAL          0.1540     0.0740    -1.8900 c6         1 AQ5       0.202800
     16 NAK          0.3320    -0.7020    -0.6320 nh         1 AQ5      -0.762400
     17 CAG         -0.7370    -1.5590    -0.2450 ca         1 AQ5       0.387000
     18 CAF         -2.0650    -1.1200    -0.0130 ca         1 AQ5      -0.125800
     19 CAH         -0.5400    -2.9520    -0.2030 ca         1 AQ5      -0.270000
     20 CAI         -1.6260    -3.8080     0.0220 ca         1 AQ5       0.384900
     21 NAJ         -2.8930    -3.3690     0.1680 nb         1 AQ5      -0.704000
     22 CAE         -3.0810    -2.0410     0.1350 ca         1 AQ5       0.376500
     23 NAD         -4.2760    -1.3590     0.2030 na         1 AQ5      -0.315400
     24 CAC         -4.0920     0.0330     0.1310 cc         1 AQ5      -0.137100
     25 CAB         -2.7190     0.1920     0.0410 cd         1 AQ5      -0.215000
     26 C2          -0.4820     2.8220     1.2190 ca         1 AQ5       0.113900
     27 H1          -3.6180     2.6290    -0.8470 ha         1 AQ5       0.131000
     28 H2          -2.5440     4.8510    -0.3070 h4         1 AQ5       0.022100
     29 H3           1.7590     1.2970     0.8470 hc         1 AQ5       0.056700
     30 H4           3.4050     1.8080     0.5350 hc         1 AQ5       0.056700
     31 H5           3.2580     0.9780     2.8420 hc         1 AQ5       0.040700
     32 H6           2.5190    -0.5310     2.3280 hc         1 AQ5       0.040700
     33 H7           5.3860     0.4180     1.7220 hc         1 AQ5       0.045200
     34 H8           4.9250    -0.9400     2.7450 hc         1 AQ5       0.045200
     35 H9           5.7050    -1.6740     0.4600 h1         1 AQ5       0.025700
     36 H10          4.0430    -2.1920     0.7930 h1         1 AQ5       0.025700
     37 H11          4.2600    -1.2590    -1.4050 hn         1 AQ5       0.410000
     38 H13          1.9800    -1.9070    -1.2220 h1         1 AQ5       0.037200
     39 H14          1.8410    -1.6800     0.5200 h1         1 AQ5       0.037200
     40 H15          3.2860     1.6410    -1.8920 hc         1 AQ5       0.047200
     41 H16          2.8520     0.1500    -2.7100 hc         1 AQ5       0.047200
     42 H17          0.9070     2.0080    -1.2160 hc         1 AQ5       0.050200
     43 H18          1.0110     1.7650    -2.9500 hc         1 AQ5       0.050200
     44 H19         -0.8710     0.4640    -1.9710 h1         1 AQ5       0.039200
     45 H20          0.3110    -0.5880    -2.7550 h1         1 AQ5       0.039200
     46 H21          0.4320    -3.3970    -0.3770 ha         1 AQ5       0.121000
     47 H22         -1.4830    -4.8880     0.0460 h4         1 AQ5       0.016100
     48 H23         -5.1680    -1.8260     0.3070 hn         1 AQ5       0.364000
     49 H24         -4.9010     0.7540     0.2290 h4         1 AQ5       0.218000
     50 H25          0.4080     2.8840     1.8430 h5         1 AQ5       0.048100
@<TRIPOS>BOND
     1     1     2 ar  
     2     1     5 ar  
     3     1    25 1   
     4     2     3 ar  
     5     2    27 1   
     6     3     4 ar  
     7     3    28 1   
     8     4    26 ar  
     9     5    26 ar  
    10     6     7 1   
    11     6    11 1   
    12     6    29 1   
    13     6    30 1   
    14     7     8 1   
    15     7    31 1   
    16     7    32 1   
    17     8     9 1   
    18     8    33 1   
    19     8    34 1   
    20     9    10 1   
    21     9    35 1   
    22     9    36 1   
    23    10    11 1   
    24    10    37 1   
    25    11    12 1   
    26    11    13 1   
    27    12    16 1   
    28    12    38 1   
    29    12    39 1   
    30    13    14 1   
    31    13    40 1   
    32    13    41 1   
    33    14    15 1   
    34    14    42 1   
    35    14    43 1   
    36    15    16 1   
    37    15    44 1   
    38    15    45 1   
    39    16    17 1   
    40    17    18 ar  
    41    17    19 ar  
    42    18    22 ar  
    43    18    25 1   
    44    19    20 ar  
    45    19    46 1   
    46    20    21 ar  
    47    20    47 1   
    48    21    22 ar  
    49    22    23 1   
    50    23    24 1   
    51    23    48 1   
    52    24    25 2   
    53    24    49 1   
    54    26    50 1   
@<TRIPOS>SUBSTRUCTURE
     1 AQ5         1 TEMP              0 ****  ****    0 ROOT
