@<TRIPOS>MOLECULE
AQ6
   70    75     1     0     0
SMALL
No Charge or Current Charge


@<TRIPOS>ATOM
      1 CBG         -7.4570    -1.5660     0.9440 c6         1 AQ6      -0.088900
      2 CBK         -9.0060    -1.5790     0.9100 c6         1 AQ6      -0.072400
      3 CBM         -9.5770    -0.1470     1.0450 c6         1 AQ6      -0.076400
      4 CBL         -8.9990     0.7920    -0.0420 c6         1 AQ6      -0.072400
      5 CBH         -7.4490     0.7990    -0.0170 c6         1 AQ6      -0.088900
      6 CAX         -6.8770    -0.6450    -0.1690 c6         1 AQ6       0.192500
      7 NAN         -5.3810    -0.7180    -0.2320 n3         1 AQ6      -0.735600
      8 CAU         -4.6670    -0.1730     0.9710 c6         1 AQ6       0.172300
      9 CAT         -3.1160    -0.3590     0.8850 c6         1 AQ6       0.182300
     10 CAV         -4.8190    -0.1030    -1.4760 c6         1 AQ6       0.172300
     11 CAS         -3.2730    -0.3000    -1.5980 c6         1 AQ6       0.182300
     12 NAM         -2.5390     0.1850    -0.3850 nh         1 AQ6      -0.795400
     13 CAE         -1.1410     0.4700    -0.4540 ca         1 AQ6       0.204000
     14 CAI         -0.2940    -0.4660    -1.0610 ca         1 AQ6      -0.152000
     15 CAC         -0.5810     1.6550     0.1120 ca         1 AQ6       0.354000
     16 NAH         -1.4230     2.5430     0.7470 nv         1 AQ6      -0.783000
     17 CAA          0.8140     1.9040     0.0130 ca         1 AQ6      -0.216600
     18 CAD          1.4390     3.1520     0.6140 c          1 AQ6       0.611300
     19 OAJ          0.7890     4.1520     0.9030 o          1 AQ6      -0.591100
     20 CAK          2.9330     3.1480     0.8170 ca         1 AQ6      -0.134600
     21 CBE          3.5390     4.0810     1.6880 ca         1 AQ6      -0.074000
     22 CBJ          4.9320     4.0940     1.8630 ca         1 AQ6      -0.116000
     23 CBI          5.7360     3.1820     1.1630 ca         1 AQ6      -0.100000
     24 CBF          5.1450     2.2570     0.2870 ca         1 AQ6      -0.066000
     25 CAL          3.7440     2.2300     0.1130 ca         1 AQ6      -0.114600
     26 CAG          3.1190     1.2620    -0.8500 c          1 AQ6       0.580300
     27 OAQ          3.7700     0.8420    -1.8000 o          1 AQ6      -0.482100
     28 CAB          1.6490     0.9500    -0.6490 ca         1 AQ6      -0.144600
     29 CAF          1.0850    -0.2580    -1.1360 ca         1 AQ6       0.339000
     30 NAO          1.8350    -1.3140    -1.6640 nu         1 AQ6      -0.805000
     31 CAY          2.9560    -1.9980    -1.1900 ca         1 AQ6       0.277000
     32 CBD          3.4370    -1.8020     0.1170 ca         1 AQ6      -0.183000
     33 CBA          4.5630    -2.5100     0.5730 ca         1 AQ6      -0.060500
     34 CAR          5.2230    -3.4350    -0.2680 ca         1 AQ6      -0.149600
     35 CAP          6.4400    -4.2020     0.2230 c          1 AQ6       0.713600
     36 OAW          6.8380    -4.0030     1.3620 o          1 AQ6      -0.724000
     37 OBB          6.9800    -4.9930    -0.5380 o          1 AQ6      -0.724000
     38 CAZ          4.7210    -3.6350    -1.5750 ca         1 AQ6      -0.060500
     39 CBC          3.5950    -2.9240    -2.0260 ca         1 AQ6      -0.183000
     40 H1          -7.1290    -1.2310     1.9360 hc         1 AQ6       0.044450
     41 H2          -7.0780    -2.5890     0.8150 hc         1 AQ6       0.044450
     42 H3          -9.3530    -2.0300    -0.0300 hc         1 AQ6       0.037450
     43 H4          -9.3910    -2.2120     1.7210 hc         1 AQ6       0.037450
     44 H5         -10.6730    -0.1740     0.9710 hc         1 AQ6       0.036700
     45 H6          -9.3420     0.2530     2.0420 hc         1 AQ6       0.036700
     46 H7          -9.3510     0.4700    -1.0320 hc         1 AQ6       0.037450
     47 H8          -9.3790     1.8120     0.1070 hc         1 AQ6       0.037450
     48 H9          -7.0870     1.4480    -0.8240 hc         1 AQ6       0.044450
     49 H10         -7.1100     1.2490     0.9260 hc         1 AQ6       0.044450
     50 H11         -7.2650    -1.0390    -1.1210 h1         1 AQ6       0.050700
     51 H13         -4.8720     0.9020     1.0820 h1         1 AQ6       0.034200
     52 H14         -5.0130    -0.6630     1.8920 h1         1 AQ6       0.034200
     53 H15         -2.6580     0.1330     1.7550 h1         1 AQ6       0.048700
     54 H16         -2.8880    -1.4320     0.9630 h1         1 AQ6       0.048700
     55 H17         -5.2980    -0.5370    -2.3670 h1         1 AQ6       0.034200
     56 H18         -5.0220     0.9770    -1.4960 h1         1 AQ6       0.034200
     57 H19         -3.0710    -1.3700    -1.7550 h1         1 AQ6       0.048700
     58 H20         -2.9220     0.2340    -2.4930 h1         1 AQ6       0.048700
     59 H21         -0.7090    -1.3930    -1.4440 ha         1 AQ6       0.114000
     60 H22         -1.0690     3.4650     0.9840 hn         1 AQ6       0.336000
     61 H23         -2.4220     2.4020     0.6490 hn         1 AQ6       0.336000
     62 H24          2.9300     4.7990     2.2340 ha         1 AQ6       0.128000
     63 H25          5.3890     4.8140     2.5390 ha         1 AQ6       0.108000
     64 H26          6.8150     3.1940     1.2950 ha         1 AQ6       0.115000
     65 H27          5.7790     1.5580    -0.2560 ha         1 AQ6       0.147000
     66 H28          1.3880    -1.7770    -2.4480 hn         1 AQ6       0.310000
     67 H29          2.9400    -1.1100     0.7890 ha         1 AQ6       0.090000
     68 H30          4.9180    -2.3380     1.5880 ha         1 AQ6       0.127000
     69 H32          5.2010    -4.3430    -2.2470 ha         1 AQ6       0.127000
     70 H33          3.2240    -3.0900    -3.0330 ha         1 AQ6       0.090000
@<TRIPOS>BOND
     1     1     2 1   
     2     1     6 1   
     3     1    40 1   
     4     1    41 1   
     5     2     3 1   
     6     2    42 1   
     7     2    43 1   
     8     3     4 1   
     9     3    44 1   
    10     3    45 1   
    11     4     5 1   
    12     4    46 1   
    13     4    47 1   
    14     5     6 1   
    15     5    48 1   
    16     5    49 1   
    17     6     7 1   
    18     6    50 1   
    19     7     8 1   
    20     7    10 1   
    21     8     9 1   
    22     8    51 1   
    23     8    52 1   
    24     9    12 1   
    25     9    53 1   
    26     9    54 1   
    27    10    11 1   
    28    10    55 1   
    29    10    56 1   
    30    11    12 1   
    31    11    57 1   
    32    11    58 1   
    33    12    13 1   
    34    13    14 ar  
    35    13    15 ar  
    36    14    29 ar  
    37    14    59 1   
    38    15    16 1   
    39    15    17 ar  
    40    16    60 1   
    41    16    61 1   
    42    17    18 1   
    43    17    28 ar  
    44    18    19 2   
    45    18    20 1   
    46    20    21 ar  
    47    20    25 ar  
    48    21    22 ar  
    49    21    62 1   
    50    22    23 ar  
    51    22    63 1   
    52    23    24 ar  
    53    23    64 1   
    54    24    25 ar  
    55    24    65 1   
    56    25    26 1   
    57    26    27 2   
    58    26    28 1   
    59    28    29 ar  
    60    29    30 1   
    61    30    31 1   
    62    30    66 1   
    63    31    32 ar  
    64    31    39 ar  
    65    32    33 ar  
    66    32    67 1   
    67    33    34 ar  
    68    33    68 1   
    69    34    35 1   
    70    34    38 ar  
    71    35    36 1   
    72    35    37 1   
    73    38    39 ar  
    74    38    69 1   
    75    39    70 1   
@<TRIPOS>SUBSTRUCTURE
     1 AQ6         1 TEMP              0 ****  ****    0 ROOT
