@<TRIPOS>MOLECULE
AQ6
   70    75     1     0     0
SMALL
bcc


@<TRIPOS>ATOM
      1 CBG         -7.2430    -1.5370     0.8570 c6         1 AQ6      -0.088900
      2 CBK         -8.7630    -1.6520     0.7680 c6         1 AQ6      -0.072400
      3 CBM         -9.4360    -0.2910     0.9100 c6         1 AQ6      -0.076400
      4 CBL         -8.8890     0.7000    -0.1120 c6         1 AQ6      -0.072400
      5 CBH         -7.3700     0.8130    -0.0150 c6         1 AQ6      -0.088900
      6 CAX         -6.7040    -0.5580    -0.1850 c6         1 AQ6       0.192500
      7 NAN         -5.2440    -0.5460    -0.2020 n3         1 AQ6      -0.735600
      8 CAU         -4.6140     0.0810     0.9430 c6         1 AQ6       0.172300
      9 CAT         -3.1170    -0.1600     0.9160 c6         1 AQ6       0.182300
     10 CAV         -4.6800    -0.0350    -1.4340 c6         1 AQ6       0.172300
     11 CAS         -3.1840    -0.2930    -1.4780 c6         1 AQ6       0.182300
     12 NAM         -2.5590     0.3520    -0.3360 nh         1 AQ6      -0.657000
     13 CAE         -1.1640     0.4760    -0.3560 ca         1 AQ6       0.065600
     14 CAI         -0.3430    -0.4290    -0.9640 ca         1 AQ6      -0.170000
     15 CAC         -0.5990     1.6200     0.2990 ca         1 AQ6       0.215600
     16 NAH         -1.4630     2.4680     0.8880 nv         1 AQ6      -0.854200
     17 CAA          0.8000     1.7790     0.2780 ca         1 AQ6      -0.216600
     18 CAD          1.3900     2.9340     0.9480 c          1 AQ6       0.611300
     19 OAJ          0.7200     3.7690     1.5500 o          1 AQ6      -0.591100
     20 CAK          2.8610     3.1020     0.9110 ca         1 AQ6      -0.134600
     21 CBE          3.4540     4.1270     1.6470 ca         1 AQ6      -0.092000
     22 CBJ          4.8260     4.3020     1.6130 ca         1 AQ6      -0.134000
     23 CBI          5.6170     3.4610     0.8350 ca         1 AQ6      -0.118000
     24 CBF          5.0330     2.4500     0.0930 ca         1 AQ6      -0.084000
     25 CAL          3.6530     2.2630     0.1320 ca         1 AQ6      -0.114600
     26 CAG          3.0460     1.1690    -0.6610 c          1 AQ6       0.580300
     27 OAQ          3.7250     0.5850    -1.4870 o          1 AQ6      -0.482100
     28 CAB          1.6330     0.8430    -0.4220 ca         1 AQ6      -0.144600
     29 CAF          1.0600    -0.2890    -1.0010 ca         1 AQ6       0.200600
     30 NAO          1.7430    -1.3190    -1.6230 nu         1 AQ6      -0.633000
     31 CAY          2.8490    -2.0170    -1.1610 ca         1 AQ6       0.138600
     32 CBD          3.3820    -1.8620     0.1200 ca         1 AQ6      -0.201000
     33 CBA          4.4660    -2.6240     0.5210 ca         1 AQ6      -0.078500
     34 CAR          5.0580    -3.5630    -0.3200 ca         1 AQ6      -0.149600
     35 CAP          6.2470    -4.3900     0.1330 c          1 AQ6       0.924200
     36 OAW          6.6750    -4.1760     1.2850 o          1 AQ6      -0.829300
     37 OBB          6.7000    -5.2170    -0.6840 o          1 AQ6      -0.829300
     38 CAZ          4.5100    -3.7190    -1.5910 ca         1 AQ6      -0.078500
     39 CBC          3.4310    -2.9610    -2.0110 ca         1 AQ6      -0.201000
     40 H1          -6.9710    -1.2030     1.8640 hc         1 AQ6       0.044450
     41 H2          -6.7780    -2.5150     0.7090 hc         1 AQ6       0.044450
     42 H3          -9.0360    -2.0880    -0.2000 hc         1 AQ6       0.037450
     43 H4          -9.1300    -2.3410     1.5320 hc         1 AQ6       0.037450
     44 H5         -10.5190    -0.3910     0.7980 hc         1 AQ6       0.036700
     45 H6          -9.2630     0.0960     1.9210 hc         1 AQ6       0.036700
     46 H7          -9.1650     0.3690    -1.1190 hc         1 AQ6       0.037450
     47 H8          -9.3460     1.6830     0.0290 hc         1 AQ6       0.037450
     48 H9          -6.9940     1.5140    -0.7650 hc         1 AQ6       0.044450
     49 H10         -7.1070     1.2290     0.9640 hc         1 AQ6       0.044450
     50 H11         -7.0030    -0.9470    -1.1680 h1         1 AQ6       0.050700
     51 H13         -4.7860     1.1700     0.9830 h1         1 AQ6       0.034200
     52 H14         -5.0140    -0.3390     1.8670 h1         1 AQ6       0.034200
     53 H15         -2.6520     0.3450     1.7630 h1         1 AQ6       0.048700
     54 H16         -2.9080    -1.2340     1.0180 h1         1 AQ6       0.048700
     55 H17         -5.1450    -0.5460    -2.2800 h1         1 AQ6       0.034200
     56 H18         -4.8530     1.0450    -1.5720 h1         1 AQ6       0.034200
     57 H19         -3.0100    -1.3780    -1.4890 h1         1 AQ6       0.048700
     58 H20         -2.7680     0.1220    -2.3970 h1         1 AQ6       0.048700
     59 H21         -0.7770    -1.3160    -1.4100 ha         1 AQ6       0.132000
     60 H22         -1.1210     3.3500     1.2280 hn         1 AQ6       0.440800
     61 H23         -2.4240     2.4050     0.5900 hn         1 AQ6       0.440800
     62 H24          2.8400     4.7840     2.2460 ha         1 AQ6       0.146000
     63 H25          5.2830     5.0950     2.1890 ha         1 AQ6       0.126000
     64 H26          6.6900     3.5990     0.8080 ha         1 AQ6       0.133000
     65 H27          5.6470     1.8000    -0.5140 ha         1 AQ6       0.165000
     66 H28          1.1910    -1.8260    -2.2970 hn         1 AQ6       0.414800
     67 H29          2.9450    -1.1600     0.8180 ha         1 AQ6       0.108000
     68 H30          4.8590    -2.4860     1.5200 ha         1 AQ6       0.145000
     69 H32          4.9410    -4.4430    -2.2710 ha         1 AQ6       0.145000
     70 H33          3.0310    -3.1000    -3.0090 ha         1 AQ6       0.108000
@<TRIPOS>BOND
     1     1     2 1   
     2     1     6 1   
     3     1    40 1   
     4     1    41 1   
     5     2     3 1   
     6     2    42 1   
     7     2    43 1   
     8     3     4 1   
     9     3    44 1   
    10     3    45 1   
    11     4     5 1   
    12     4    46 1   
    13     4    47 1   
    14     5     6 1   
    15     5    48 1   
    16     5    49 1   
    17     6     7 1   
    18     6    50 1   
    19     7     8 1   
    20     7    10 1   
    21     8     9 1   
    22     8    51 1   
    23     8    52 1   
    24     9    12 1   
    25     9    53 1   
    26     9    54 1   
    27    10    11 1   
    28    10    55 1   
    29    10    56 1   
    30    11    12 1   
    31    11    57 1   
    32    11    58 1   
    33    12    13 1   
    34    13    14 ar  
    35    13    15 ar  
    36    14    29 ar  
    37    14    59 1   
    38    15    16 1   
    39    15    17 ar  
    40    16    60 1   
    41    16    61 1   
    42    17    18 1   
    43    17    28 ar  
    44    18    19 2   
    45    18    20 1   
    46    20    21 ar  
    47    20    25 ar  
    48    21    22 ar  
    49    21    62 1   
    50    22    23 ar  
    51    22    63 1   
    52    23    24 ar  
    53    23    64 1   
    54    24    25 ar  
    55    24    65 1   
    56    25    26 1   
    57    26    27 2   
    58    26    28 1   
    59    28    29 ar  
    60    29    30 1   
    61    30    31 1   
    62    30    66 1   
    63    31    32 ar  
    64    31    39 ar  
    65    32    33 ar  
    66    32    67 1   
    67    33    34 ar  
    68    33    68 1   
    69    34    35 1   
    70    34    38 ar  
    71    35    36 1   
    72    35    37 1   
    73    38    39 ar  
    74    38    69 1   
    75    39    70 1   
@<TRIPOS>SUBSTRUCTURE
     1 AQ6         1 TEMP              0 ****  ****    0 ROOT
