@<TRIPOS>MOLECULE
AQ7
   37    37     1     0     0
SMALL
No Charge or Current Charge


@<TRIPOS>ATOM
      1 C9           3.2450    -0.9510    -0.5130 c          1 AQ7       0.598100
      2 C8           1.2620     0.5040    -1.1560 c6         1 AQ7       0.096000
      3 C10          4.6700    -1.0590     0.0720 c3         1 AQ7      -0.155400
      4 C11          5.2950    -2.4730     0.0790 c3         1 AQ7      -0.074100
      5 N1           2.6400     0.3260    -0.6210 n          1 AQ7      -0.406800
      6 C3          -1.1420     1.1480    -0.5360 c          1 AQ7       0.589100
      7 C4           0.3080     1.0000    -0.0430 c6         1 AQ7      -0.171700
      8 C5           0.8360     2.2470     0.7150 c6         1 AQ7      -0.064400
      9 N           -2.0640     0.3070     0.0480 ns         1 AQ7      -0.455900
     10 CA          -3.5070     0.2420    -0.2860 c3         1 AQ7      -0.044300
     11 C           -4.3180    -0.3910     0.8880 c          1 AQ7       0.715000
     12 O           -3.8200    -1.3260     1.5020 o          1 AQ7      -0.725000
     13 CB          -3.7460    -0.5140    -1.6120 c3         1 AQ7      -0.079100
     14 C6           2.2990     2.0280     1.1750 c6         1 AQ7      -0.102400
     15 C7           3.1870     1.5690    -0.0070 c6         1 AQ7       0.099000
     16 O1          -1.4510     1.9650    -1.3930 o          1 AQ7      -0.663100
     17 O2           2.6540    -1.9520    -0.9000 o          1 AQ7      -0.597100
     18 H3           5.3110    -0.3450    -0.4580 hc         1 AQ7       0.050200
     19 H4           4.6540    -0.6320     1.0810 hc         1 AQ7       0.050200
     20 H5           5.3700    -2.8690    -0.9410 hc         1 AQ7       0.038033
     21 H6           6.3030    -2.4430     0.5090 hc         1 AQ7       0.038033
     22 H7           4.6870    -3.1630     0.6760 hc         1 AQ7       0.038033
     23 H8           0.2850     0.1910     0.7010 hc         1 AQ7       0.065700
     24 H9           0.7870     3.1270     0.0580 hc         1 AQ7       0.054200
     25 H10          0.1970     2.4670     1.5820 hc         1 AQ7       0.054200
     26 H11         -1.7170    -0.3280     0.7590 hn         1 AQ7       0.343500
     27 H12         -3.8700     1.2710    -0.4080 h1         1 AQ7       0.049700
     28 H14         -4.8150    -0.5350    -1.8530 hc         1 AQ7       0.025700
     29 H15         -3.2200    -0.0270    -2.4420 hc         1 AQ7       0.025700
     30 H16         -3.3900    -1.5490    -1.5390 hc         1 AQ7       0.025700
     31 H17          2.7000     2.9560     1.6040 hc         1 AQ7       0.039700
     32 H18          2.3300     1.2730     1.9720 hc         1 AQ7       0.039700
     33 H19          4.2180     1.4390     0.3430 h1         1 AQ7       0.042700
     34 H20          3.2100     2.3590    -0.7710 h1         1 AQ7       0.042700
     35 OXT         -5.3660     0.1450     1.2190 o          1 AQ7      -0.725000
     36 H1           1.2890     1.2420    -1.9710 h1         1 AQ7       0.072700
     37 H2           0.8770    -0.4320    -1.5850 h1         1 AQ7       0.072700
@<TRIPOS>BOND
     1     1     3 1   
     2     1     5 1   
     3     1    17 2   
     4     2     5 1   
     5     2     7 1   
     6     2    36 1   
     7     2    37 1   
     8     3     4 1   
     9     3    18 1   
    10     3    19 1   
    11     4    20 1   
    12     4    21 1   
    13     4    22 1   
    14     5    15 1   
    15     6     7 1   
    16     6     9 1   
    17     6    16 2   
    18     7     8 1   
    19     7    23 1   
    20     8    14 1   
    21     8    24 1   
    22     8    25 1   
    23     9    10 1   
    24     9    26 1   
    25    10    11 1   
    26    10    13 1   
    27    10    27 1   
    28    11    12 1   
    29    11    35 1   
    30    13    28 1   
    31    13    29 1   
    32    13    30 1   
    33    14    15 1   
    34    14    31 1   
    35    14    32 1   
    36    15    33 1   
    37    15    34 1   
@<TRIPOS>SUBSTRUCTURE
     1 AQ7         1 TEMP              0 ****  ****    0 ROOT
