@<TRIPOS>MOLECULE
AQ7
   37    37     1     0     0
SMALL
abcg2


@<TRIPOS>ATOM
      1 C9           3.0940    -0.9160    -0.4740 c          1 AQ7       0.598100
      2 C8           1.1850     0.4680    -1.0790 c6         1 AQ7       0.096000
      3 C10          4.4970    -0.9870     0.1020 c3         1 AQ7      -0.155400
      4 C11          5.0100    -2.4090     0.2500 c3         1 AQ7      -0.074100
      5 N1           2.5720     0.3160    -0.6840 n          1 AQ7      -0.406800
      6 C3          -1.0950     1.1370    -0.3400 c          1 AQ7       0.589100
      7 C4           0.3420     0.9460     0.1120 c6         1 AQ7      -0.171700
      8 C5           0.9270     2.2410     0.6790 c6         1 AQ7      -0.064400
      9 N           -1.9530     0.2060     0.0830 ns         1 AQ7      -0.455900
     10 CA          -3.3680     0.1910    -0.2130 c3         1 AQ7      -0.044300
     11 C           -4.0820    -0.7700     0.7690 c          1 AQ7       0.715000
     12 O           -3.3610    -1.4520     1.5260 o          1 AQ7      -0.725000
     13 CB          -3.6500    -0.2260    -1.6560 c3         1 AQ7      -0.079100
     14 C6           2.4100     2.0790     0.9990 c6         1 AQ7      -0.102400
     15 C7           3.1660     1.5570    -0.2170 c6         1 AQ7       0.099000
     16 O1          -1.4150     2.0750    -1.0650 o          1 AQ7      -0.663100
     17 O2           2.4740    -1.9370    -0.7450 o          1 AQ7      -0.597100
     18 H3           5.1800    -0.4090    -0.5270 hc         1 AQ7       0.050200
     19 H4           4.5040    -0.4890     1.0760 hc         1 AQ7       0.050200
     20 H5           5.0670    -2.9210    -0.7100 hc         1 AQ7       0.038033
     21 H6           6.0120    -2.3930     0.6760 hc         1 AQ7       0.038033
     22 H7           4.3770    -3.0010     0.9100 hc         1 AQ7       0.038033
     23 H8           0.3870     0.1700     0.8840 hc         1 AQ7       0.065700
     24 H9           0.8020     3.0410    -0.0560 hc         1 AQ7       0.054200
     25 H10          0.3770     2.5410     1.5740 hc         1 AQ7       0.054200
     26 H11         -1.6540    -0.5120     0.7270 hn         1 AQ7       0.343500
     27 H12         -3.7720     1.1960    -0.0550 h1         1 AQ7       0.049700
     28 H14         -4.7210    -0.2040    -1.8520 hc         1 AQ7       0.025700
     29 H15         -3.1640     0.4470    -2.3620 hc         1 AQ7       0.025700
     30 H16         -3.2880    -1.2380    -1.8450 hc         1 AQ7       0.025700
     31 H17          2.8360     3.0350     1.3090 hc         1 AQ7       0.039700
     32 H18          2.5430     1.3810     1.8320 hc         1 AQ7       0.039700
     33 H19          4.2210     1.4230     0.0050 h1         1 AQ7       0.042700
     34 H20          3.1080     2.2880    -1.0300 h1         1 AQ7       0.042700
     35 OXT         -5.3220    -0.7840     0.6980 o          1 AQ7      -0.725000
     36 H1           1.1300     1.2040    -1.8870 h1         1 AQ7       0.072700
     37 H2           0.8120    -0.4770    -1.4650 h1         1 AQ7       0.072700
@<TRIPOS>BOND
     1     1     3 1   
     2     1     5 1   
     3     1    17 2   
     4     2     5 1   
     5     2     7 1   
     6     2    36 1   
     7     2    37 1   
     8     3     4 1   
     9     3    18 1   
    10     3    19 1   
    11     4    20 1   
    12     4    21 1   
    13     4    22 1   
    14     5    15 1   
    15     6     7 1   
    16     6     9 1   
    17     6    16 2   
    18     7     8 1   
    19     7    23 1   
    20     8    14 1   
    21     8    24 1   
    22     8    25 1   
    23     9    10 1   
    24     9    26 1   
    25    10    11 1   
    26    10    13 1   
    27    10    27 1   
    28    11    12 1   
    29    11    35 1   
    30    13    28 1   
    31    13    29 1   
    32    13    30 1   
    33    14    15 1   
    34    14    31 1   
    35    14    32 1   
    36    15    33 1   
    37    15    34 1   
@<TRIPOS>SUBSTRUCTURE
     1 AQ7         1 TEMP              0 ****  ****    0 ROOT
