@<TRIPOS>MOLECULE
AQ8
   56    59     1     0     0
SMALL
No Charge or Current Charge


@<TRIPOS>ATOM
      1 Cl           4.6820     2.3940     0.8110 cl         1 AQ8      -0.201000
      2 C24          3.7550     0.9370     0.4520 ca         1 AQ8       0.126000
      3 C8           4.3350    -0.1420    -0.2610 cp         1 AQ8      -0.024000
      4 C7           5.7500    -0.1000    -0.7300 cp         1 AQ8      -0.039000
      5 C6           6.0190     0.2170    -2.0820 ca         1 AQ8      -0.091000
      6 C5           7.3360     0.2630    -2.5660 ca         1 AQ8      -0.116000
      7 C4           8.4060    -0.0130    -1.7030 ca         1 AQ8      -0.102000
      8 C3           8.1590    -0.3370    -0.3590 ca         1 AQ8      -0.113000
      9 C2           6.8410    -0.3840     0.1400 ca         1 AQ8      -0.048300
     10 C1           6.6320    -0.7620     1.6050 c3         1 AQ8      -0.035100
     11 C            6.3760    -2.2700     1.7890 c3         1 AQ8      -0.086100
     12 C23          2.4190     0.8740     0.8830 ca         1 AQ8      -0.106000
     13 C11          1.6330    -0.2630     0.6100 ca         1 AQ8      -0.081300
     14 C10          2.1970    -1.3340    -0.1070 ca         1 AQ8      -0.087000
     15 C9           3.5330    -1.2720    -0.5390 ca         1 AQ8      -0.100000
     16 C12          0.1870    -0.3320     1.0800 c3         1 AQ8       0.207100
     17 N           -0.7270     0.0550    -0.0100 n7         1 AQ8      -0.868400
     18 C13         -2.1600     0.0520     0.3400 c3         1 AQ8       0.163800
     19 C14         -3.0060     0.4350    -0.8850 c3         1 AQ8      -0.089700
     20 C15         -4.4750     0.4530    -0.5770 cc         1 AQ8       0.397800
     21 N2          -5.1630     1.5780    -0.1330 na         1 AQ8      -0.312600
     22 C22         -6.4590     1.2090     0.0440 ca         1 AQ8      -0.046200
     23 C16         -6.5470    -0.1140    -0.2880 ca         1 AQ8       0.037400
     24 N1          -5.2980    -0.6080    -0.6840 nd         1 AQ8      -0.547100
     25 C21         -7.5530     1.9640     0.4770 ca         1 AQ8      -0.157000
     26 C20         -8.8000     1.3140     0.5690 ca         1 AQ8      -0.050000
     27 C19         -8.9180    -0.0550     0.2310 ca         1 AQ8      -0.238000
     28 C17         -7.7840    -0.7910    -0.2050 ca         1 AQ8       0.205100
     29 O           -7.8490    -2.1300    -0.5460 os         1 AQ8      -0.312100
     30 C18         -9.0770    -2.8750    -0.4830 c3         1 AQ8       0.143900
     31 H1           5.1940     0.4310    -2.7570 ha         1 AQ8       0.115000
     32 H2           7.5250     0.5110    -3.6080 ha         1 AQ8       0.113000
     33 H3           9.4280     0.0200    -2.0760 ha         1 AQ8       0.112000
     34 H4           8.9980    -0.5570     0.2970 ha         1 AQ8       0.112000
     35 H5           7.5110    -0.4810     2.1980 hc         1 AQ8       0.050200
     36 H6           5.7950    -0.2040     2.0390 hc         1 AQ8       0.050200
     37 H7           7.2220    -2.8540     1.4070 hc         1 AQ8       0.034367
     38 H8           6.2450    -2.5090     2.8510 hc         1 AQ8       0.034367
     39 H9           5.4720    -2.5790     1.2530 hc         1 AQ8       0.034367
     40 H10          1.9930     1.7120     1.4290 ha         1 AQ8       0.126000
     41 H11          1.5980    -2.2140    -0.3310 ha         1 AQ8       0.133000
     42 H12          3.9570    -2.1080    -1.0920 ha         1 AQ8       0.122000
     43 H13         -0.0320    -1.3540     1.4200 h1         1 AQ8       0.042200
     44 H14          0.0570     0.3340     1.9450 h1         1 AQ8       0.042200
     45 H15         -0.4670     1.0010    -0.3140 hn         1 AQ8       0.407000
     46 H17         -2.4690    -0.9440     0.6880 h1         1 AQ8       0.048700
     47 H18         -2.3610     0.7660     1.1530 h1         1 AQ8       0.048700
     48 H19         -2.6970     1.4210    -1.2510 hc         1 AQ8       0.059700
     49 H20         -2.8120    -0.2770    -1.6960 hc         1 AQ8       0.059700
     50 H21         -4.7640     2.4950     0.0240 hn         1 AQ8       0.354000
     51 H23         -7.4490     3.0160     0.7340 ha         1 AQ8       0.119000
     52 H24         -9.6750     1.8680     0.9020 ha         1 AQ8       0.111000
     53 H25         -9.8930    -0.5260     0.3130 ha         1 AQ8       0.118000
     54 H26         -9.8320    -2.4390    -1.1490 h1         1 AQ8       0.041033
     55 H27         -8.9080    -3.9130    -0.7950 h1         1 AQ8       0.041033
     56 H28         -9.4730    -2.8870     0.5400 h1         1 AQ8       0.041033
@<TRIPOS>BOND
     1     1     2 1   
     2     2     3 ar  
     3     2    12 ar  
     4     3     4 1   
     5     3    15 ar  
     6     4     5 ar  
     7     4     9 ar  
     8     5     6 ar  
     9     5    31 1   
    10     6     7 ar  
    11     6    32 1   
    12     7     8 ar  
    13     7    33 1   
    14     8     9 ar  
    15     8    34 1   
    16     9    10 1   
    17    10    11 1   
    18    10    35 1   
    19    10    36 1   
    20    11    37 1   
    21    11    38 1   
    22    11    39 1   
    23    12    13 ar  
    24    12    40 1   
    25    13    14 ar  
    26    13    16 1   
    27    14    15 ar  
    28    14    41 1   
    29    15    42 1   
    30    16    17 1   
    31    16    43 1   
    32    16    44 1   
    33    17    18 1   
    34    17    45 1   
    35    18    19 1   
    36    18    46 1   
    37    18    47 1   
    38    19    20 1   
    39    19    48 1   
    40    19    49 1   
    41    20    21 1   
    42    20    24 2   
    43    21    22 1   
    44    21    50 1   
    45    22    23 ar  
    46    22    25 ar  
    47    23    24 1   
    48    23    28 ar  
    49    25    26 ar  
    50    25    51 1   
    51    26    27 ar  
    52    26    52 1   
    53    27    28 ar  
    54    27    53 1   
    55    28    29 1   
    56    29    30 1   
    57    30    54 1   
    58    30    55 1   
    59    30    56 1   
@<TRIPOS>SUBSTRUCTURE
     1 AQ8         1 TEMP              0 ****  ****    0 ROOT
