@<TRIPOS>MOLECULE
AQ8
   56    59     1     0     0
SMALL
abcg2


@<TRIPOS>ATOM
      1 CL           4.9840     1.5830     2.1730 cl         1 AQ8      -0.201000
      2 C24          3.8510     0.7630     1.1460 ca         1 AQ8       0.126000
      3 C8           4.3060     0.0990     0.0130 cp         1 AQ8      -0.024000
      4 C7           5.7370     0.0650    -0.3770 cp         1 AQ8      -0.039000
      5 C6           6.1660     0.8980    -1.4080 ca         1 AQ8      -0.091000
      6 C5           7.4890     0.8930    -1.8260 ca         1 AQ8      -0.116000
      7 C4           8.3960     0.0450    -1.2060 ca         1 AQ8      -0.102000
      8 C3           7.9710    -0.7870    -0.1810 ca         1 AQ8      -0.113000
      9 C2           6.6460    -0.7940     0.2510 ca         1 AQ8      -0.048300
     10 C1           6.2210    -1.7620     1.3220 c3         1 AQ8      -0.035100
     11 C            5.7820    -3.1030     0.7370 c3         1 AQ8      -0.086100
     12 C23          2.5060     0.8030     1.4860 ca         1 AQ8      -0.106000
     13 C11          1.5650     0.1690     0.6870 ca         1 AQ8      -0.081300
     14 C10          2.0000    -0.4900    -0.4610 ca         1 AQ8      -0.087000
     15 C9           3.3450    -0.5230    -0.7840 ca         1 AQ8      -0.100000
     16 C12          0.1080     0.1830     1.0640 c3         1 AQ8       0.207100
     17 N           -0.7270     0.5140    -0.0720 n7         1 AQ8      -0.868400
     18 C13         -2.1430     0.4220     0.2210 c3         1 AQ8       0.163800
     19 C14         -2.9570     0.7580    -1.0220 c3         1 AQ8      -0.089700
     20 C15         -4.4210     0.5960    -0.7980 cc         1 AQ8       0.397800
     21 N2          -5.3250     1.5180    -1.2220 na         1 AQ8      -0.312600
     22 C22         -6.5730     1.0680    -0.8860 ca         1 AQ8      -0.046200
     23 C16         -6.3350    -0.1540    -0.2470 ca         1 AQ8       0.037400
     24 N1          -4.9880    -0.4200    -0.2070 nd         1 AQ8      -0.547100
     25 C21         -7.8500     1.5960    -1.0710 ca         1 AQ8      -0.157000
     26 C20         -8.8920     0.8340    -0.5840 ca         1 AQ8      -0.050000
     27 C19         -8.6900    -0.3990     0.0610 ca         1 AQ8      -0.238000
     28 C17         -7.4120    -0.9100     0.2410 ca         1 AQ8       0.205100
     29 O           -7.1100    -2.0710     0.8450 os         1 AQ8      -0.312100
     30 C18         -8.1740    -2.8630     1.3340 c3         1 AQ8       0.143900
     31 H1           5.4540     1.5610    -1.8840 ha         1 AQ8       0.115000
     32 H2           7.8070     1.5470    -2.6270 ha         1 AQ8       0.113000
     33 H3           9.4320     0.0310    -1.5190 ha         1 AQ8       0.112000
     34 H4           8.6820    -1.4510     0.2970 ha         1 AQ8       0.112000
     35 H5           7.0520    -1.9230     2.0120 hc         1 AQ8       0.050200
     36 H6           5.4070    -1.3450     1.9160 hc         1 AQ8       0.050200
     37 H7           6.5980    -3.5780     0.1890 hc         1 AQ8       0.034367
     38 H8           5.4660    -3.7850     1.5260 hc         1 AQ8       0.034367
     39 H9           4.9470    -2.9790     0.0470 hc         1 AQ8       0.034367
     40 H10          2.1910     1.3340     2.3760 ha         1 AQ8       0.126000
     41 H11          1.2800    -0.9790    -1.1040 ha         1 AQ8       0.133000
     42 H12          3.6690    -1.0440    -1.6770 ha         1 AQ8       0.122000
     43 H13         -0.1770    -0.8170     1.4090 h1         1 AQ8       0.042200
     44 H14         -0.0400     0.8550     1.9230 h1         1 AQ8       0.042200
     45 H15         -0.5080     1.4570    -0.3750 hn         1 AQ8       0.407000
     46 H17         -2.3640    -0.6010     0.5320 h1         1 AQ8       0.048700
     47 H18         -2.4560     1.0750     1.0500 h1         1 AQ8       0.048700
     48 H19         -2.7500     1.7830    -1.3390 hc         1 AQ8       0.059700
     49 H20         -2.6430     0.1080    -1.8440 hc         1 AQ8       0.059700
     50 H21         -5.1100     2.3800    -1.6970 hn         1 AQ8       0.354000
     51 H23         -8.0180     2.5420    -1.5670 ha         1 AQ8       0.119000
     52 H24         -9.9070     1.1890    -0.7000 ha         1 AQ8       0.111000
     53 H25         -9.5580    -0.9390     0.4130 ha         1 AQ8       0.118000
     54 H26         -8.8470    -3.1780     0.5320 h1         1 AQ8       0.041033
     55 H27         -7.7230    -3.7450     1.7820 h1         1 AQ8       0.041033
     56 H28         -8.7560    -2.3380     2.0960 h1         1 AQ8       0.041033
@<TRIPOS>BOND
     1     1     2 1   
     2     2     3 ar  
     3     2    12 ar  
     4     3     4 1   
     5     3    15 ar  
     6     4     5 ar  
     7     4     9 ar  
     8     5     6 ar  
     9     5    31 1   
    10     6     7 ar  
    11     6    32 1   
    12     7     8 ar  
    13     7    33 1   
    14     8     9 ar  
    15     8    34 1   
    16     9    10 1   
    17    10    11 1   
    18    10    35 1   
    19    10    36 1   
    20    11    37 1   
    21    11    38 1   
    22    11    39 1   
    23    12    13 ar  
    24    12    40 1   
    25    13    14 ar  
    26    13    16 1   
    27    14    15 ar  
    28    14    41 1   
    29    15    42 1   
    30    16    17 1   
    31    16    43 1   
    32    16    44 1   
    33    17    18 1   
    34    17    45 1   
    35    18    19 1   
    36    18    46 1   
    37    18    47 1   
    38    19    20 1   
    39    19    48 1   
    40    19    49 1   
    41    20    21 1   
    42    20    24 2   
    43    21    22 1   
    44    21    50 1   
    45    22    23 ar  
    46    22    25 ar  
    47    23    24 1   
    48    23    28 ar  
    49    25    26 ar  
    50    25    51 1   
    51    26    27 ar  
    52    26    52 1   
    53    27    28 ar  
    54    27    53 1   
    55    28    29 1   
    56    29    30 1   
    57    30    54 1   
    58    30    55 1   
    59    30    56 1   
@<TRIPOS>SUBSTRUCTURE
     1 AQ8         1 TEMP              0 ****  ****    0 ROOT
