@<TRIPOS>MOLECULE
AQ9
   95   100     1     0     0
SMALL
No Charge or Current Charge


@<TRIPOS>ATOM
      1 C19         47.5230    22.6230    24.5430 c2         1 AQ9      -0.283000
      2 C18         48.5770    20.3200    24.9730 c5         1 AQ9       0.220200
      3 C17         46.4230    20.4430    23.8320 c5         1 AQ9      -0.040200
      4 C1          50.2620    12.8460    22.7440 c6         1 AQ9       0.396300
      5 C3          52.4250    11.5210    22.8580 c6         1 AQ9       0.096300
      6 C5          51.4390    12.7350    24.8660 c6         1 AQ9       0.183300
      7 C15         48.1940    14.0590    22.3800 c          1 AQ9       0.612100
      8 C14         46.0250    14.2610    21.0870 c3         1 AQ9      -0.089100
      9 C7          45.9240    17.9380    23.5700 c6         1 AQ9      -0.062400
     10 C6          51.6840    13.5790    26.1620 c3         1 AQ9       0.170600
     11 C9          47.0580    19.0050    23.6870 c5         1 AQ9      -0.044000
     12 C10         47.8050    18.9710    25.0650 c5         1 AQ9      -0.089400
     13 C12         49.7250    20.2500    23.9390 c6         1 AQ9      -0.057400
     14 C11         48.1710    20.9980    27.3460 c6         1 AQ9       0.404300
     15 O6          50.4670    14.0430    26.7830 oh         1 AQ9      -0.712000
     16 C4          52.7690    12.2720    24.1800 c6         1 AQ9       0.117300
     17 O4          53.5560    11.4090    25.0320 oh         1 AQ9      -0.720000
     18 O3          53.6280    11.1300    22.1700 oh         1 AQ9      -0.673000
     19 O5          50.6660    13.5440    23.9410 os         1 AQ9      -0.462000
     20 O1          49.4500    13.7280    21.9590 os         1 AQ9      -0.430100
     21 C2          51.5360    12.4090    21.9440 c6         1 AQ9       0.142300
     22 O2          51.2350    11.6910    20.7260 oh         1 AQ9      -0.707000
     23 C51         47.2770    22.8760    28.5950 c6         1 AQ9       0.181300
     24 C71         47.5430    22.1720    29.9700 c6         1 AQ9       0.118300
     25 O41         46.5720    22.5430    30.9740 oh         1 AQ9      -0.722000
     26 C31         47.5160    20.6270    29.7680 c6         1 AQ9       0.095300
     27 O31         47.8170    19.9500    31.0020 oh         1 AQ9      -0.673000
     28 O51         48.2420    22.4140    27.6150 os         1 AQ9      -0.465000
     29 C21         48.5150    20.2060    28.6550 c6         1 AQ9       0.133300
     30 O21         48.4730    18.7690    28.5020 oh         1 AQ9      -0.710000
     31 O           47.6150    13.3860    23.2260 o          1 AQ9      -0.470000
     32 C42         47.3980    14.9700    21.3760 c6         1 AQ9      -0.087000
     33 C41         48.1050    15.1410    19.9700 c6         1 AQ9      -0.063400
     34 C43         47.1640    16.4280    21.9500 c6         1 AQ9      -0.033700
     35 C33         46.4070    16.4920    23.3050 c6         1 AQ9      -0.069400
     36 C46         47.4970    21.2810    24.4990 c2         1 AQ9      -0.166400
     37 C39         49.1780    19.9760    22.5040 c6         1 AQ9      -0.063400
     38 C8          48.0270    18.9010    22.4250 c6         1 AQ9      -0.036700
     39 C44         48.4900    17.3990    22.0320 c6         1 AQ9      -0.026000
     40 C16         49.6230    16.8700    23.0170 c3         1 AQ9      -0.092100
     41 C45         49.1600    17.4330    20.5690 c6         1 AQ9      -0.076400
     42 C40         49.3890    16.0190    19.9270 c6         1 AQ9      -0.075400
     43 O19         49.0980    20.6880    26.2810 os         1 AQ9      -0.430000
     44 H1          48.3530    23.1630    25.0000 ha         1 AQ9       0.175500
     45 H2          46.7150    23.2270    24.1320 ha         1 AQ9       0.175500
     46 H3          46.1100    20.8650    22.8700 hc         1 AQ9       0.049200
     47 H4          45.5300    20.4210    24.4690 hc         1 AQ9       0.049200
     48 H5          49.6820    11.9490    23.0090 h2         1 AQ9       0.069700
     49 H6          51.8470    10.6220    23.1260 h1         1 AQ9       0.059700
     50 H7          50.8470    11.8510    25.1450 h1         1 AQ9       0.070700
     51 H8          45.4450    14.0600    21.9950 hc         1 AQ9       0.046033
     52 H9          45.3900    14.8660    20.4280 hc         1 AQ9       0.046033
     53 H10         46.1790    13.2950    20.5920 hc         1 AQ9       0.046033
     54 H11         45.3190    17.9460    24.4870 hc         1 AQ9       0.037700
     55 H12         45.2360    18.2340    22.7660 hc         1 AQ9       0.037700
     56 H13         52.3200    14.4350    25.8950 h1         1 AQ9       0.039200
     57 H14         52.2500    12.9620    26.8730 h1         1 AQ9       0.039200
     58 H15         47.0940    18.9400    25.8980 hc         1 AQ9       0.061200
     59 H16         48.4730    18.1210    25.2040 hc         1 AQ9       0.061200
     60 H17         50.4460    19.4850    24.2470 hc         1 AQ9       0.055200
     61 H18         50.2770    21.2000    23.9380 hc         1 AQ9       0.055200
     62 H19         47.1450    20.7450    27.0400 h2         1 AQ9       0.044700
     63 H20         50.7280    14.6280    27.5310 ho         1 AQ9       0.503000
     64 H21         53.3480    13.1730    23.9200 h1         1 AQ9       0.060700
     65 H22         54.1730    11.9790    25.5510 ho         1 AQ9       0.510000
     66 H23         54.2260    10.7860    22.8730 ho         1 AQ9       0.451000
     67 H24         52.1000    13.3230    21.7040 h1         1 AQ9       0.069700
     68 H25         52.0700    11.2070    20.5170 ho         1 AQ9       0.520000
     69 H26         47.3300    26.0630    27.5700 ho         1 AQ9       0.503000
     70 H29         46.2670    22.6180    28.2450 h1         1 AQ9       0.062700
     71 H30         48.5550    22.4540    30.3040 h1         1 AQ9       0.061700
     72 H31         46.9210    23.3310    31.4550 ho         1 AQ9       0.510000
     73 H32         46.5030    20.3520    29.4360 h1         1 AQ9       0.053700
     74 H33         47.3090    20.4360    31.6920 ho         1 AQ9       0.449000
     75 H34         49.5250    20.5140    28.9670 h1         1 AQ9       0.072700
     76 H35         48.3550    18.4320    29.4220 ho         1 AQ9       0.511000
     77 H36         47.3870    15.5840    19.2660 hc         1 AQ9       0.049700
     78 H37         48.3390    14.1520    19.5530 hc         1 AQ9       0.049700
     79 H38         46.5000    16.9100    21.2180 hc         1 AQ9       0.039700
     80 H39         45.5230    15.8440    23.2910 hc         1 AQ9       0.054700
     81 H40         47.0310    16.1360    24.1340 hc         1 AQ9       0.054700
     82 H41         50.0130    19.7290    21.8400 hc         1 AQ9       0.041200
     83 H42         48.7850    20.9220    22.1070 hc         1 AQ9       0.041200
     84 H43         47.4070    19.2190    21.5750 hc         1 AQ9       0.036700
     85 H44         49.2400    16.5640    23.9920 hc         1 AQ9       0.042367
     86 H45         50.1430    16.0000    22.6170 hc         1 AQ9       0.042367
     87 H46         50.4140    17.6060    23.1710 hc         1 AQ9       0.042367
     88 H47         50.1220    17.9600    20.5860 hc         1 AQ9       0.037700
     89 H48         48.5100    18.0120    19.8990 hc         1 AQ9       0.037700
     90 H49         50.2300    15.5130    20.4140 hc         1 AQ9       0.048700
     91 H50         49.7000    16.1480    18.8820 hc         1 AQ9       0.048700
     92 C61         47.3740    24.4370    28.6850 c3         1 AQ9       0.169600
     93 H27         48.3610    24.6930    29.0930 h1         1 AQ9       0.040700
     94 O61         47.1760    25.1020    27.4180 oh         1 AQ9      -0.719000
     95 H28         46.6240    24.7870    29.4070 h1         1 AQ9       0.040700
@<TRIPOS>BOND
     1     1    36 2   
     2     1    44 1   
     3     1    45 1   
     4     2    12 1   
     5     2    13 1   
     6     2    36 1   
     7     2    43 1   
     8     3    11 1   
     9     3    36 1   
    10     3    46 1   
    11     3    47 1   
    12     4    19 1   
    13     4    20 1   
    14     4    21 1   
    15     4    48 1   
    16     5    16 1   
    17     5    18 1   
    18     5    21 1   
    19     5    49 1   
    20     6    10 1   
    21     6    16 1   
    22     6    19 1   
    23     6    50 1   
    24     7    20 1   
    25     7    31 2   
    26     7    32 1   
    27     8    32 1   
    28     8    51 1   
    29     8    52 1   
    30     8    53 1   
    31     9    11 1   
    32     9    35 1   
    33     9    54 1   
    34     9    55 1   
    35    10    15 1   
    36    10    56 1   
    37    10    57 1   
    38    11    12 1   
    39    11    38 1   
    40    12    58 1   
    41    12    59 1   
    42    13    37 1   
    43    13    60 1   
    44    13    61 1   
    45    14    28 1   
    46    14    29 1   
    47    14    43 1   
    48    14    62 1   
    49    15    63 1   
    50    16    17 1   
    51    16    64 1   
    52    17    65 1   
    53    18    66 1   
    54    21    22 1   
    55    21    67 1   
    56    22    68 1   
    57    23    24 1   
    58    23    28 1   
    59    23    70 1   
    60    23    92 1   
    61    24    25 1   
    62    24    26 1   
    63    24    71 1   
    64    25    72 1   
    65    26    27 1   
    66    26    29 1   
    67    26    73 1   
    68    27    74 1   
    69    29    30 1   
    70    29    75 1   
    71    30    76 1   
    72    32    33 1   
    73    32    34 1   
    74    33    42 1   
    75    33    77 1   
    76    33    78 1   
    77    34    35 1   
    78    34    39 1   
    79    34    79 1   
    80    35    80 1   
    81    35    81 1   
    82    37    38 1   
    83    37    82 1   
    84    37    83 1   
    85    38    39 1   
    86    38    84 1   
    87    39    40 1   
    88    39    41 1   
    89    40    85 1   
    90    40    86 1   
    91    40    87 1   
    92    41    42 1   
    93    41    88 1   
    94    41    89 1   
    95    42    90 1   
    96    42    91 1   
    97    69    94 1   
    98    92    93 1   
    99    92    94 1   
   100    92    95 1   
@<TRIPOS>SUBSTRUCTURE
     1 AQ9         1 TEMP              0 ****  ****    0 ROOT
