@<TRIPOS>MOLECULE
AQ9
   95   100     1     0     0
SMALL
abcg2


@<TRIPOS>ATOM
      1 C19         47.1600    22.6000    24.2500 c2         1 AQ9      -0.283000
      2 C18         48.6510    20.5430    24.2270 c5         1 AQ9       0.220200
      3 C17         46.2790    20.2690    23.7470 c5         1 AQ9      -0.040200
      4 C1          49.7990    13.6450    24.0030 c6         1 AQ9       0.396300
      5 C3          50.9670    13.4760    26.1820 c6         1 AQ9       0.096300
      6 C5          50.5750    11.5120    24.6920 c6         1 AQ9       0.183300
      7 C15         48.6690    14.2550    22.0040 c          1 AQ9       0.612100
      8 C14         46.2530    13.9450    21.8100 c3         1 AQ9      -0.089100
      9 C7          46.1400    17.7440    23.8800 c6         1 AQ9      -0.062400
     10 C6          50.2140    10.0510    24.5760 c3         1 AQ9       0.170600
     11 C9          47.0360    18.9280    23.5440 c5         1 AQ9      -0.044000
     12 C10         48.1990    19.1130    24.5390 c5         1 AQ9      -0.089400
     13 C12         49.3600    20.5230    22.8710 c6         1 AQ9      -0.057400
     14 C11         49.2560    21.2230    26.4810 c6         1 AQ9       0.404300
     15 O6          50.3010     9.6690    23.2040 oh         1 AQ9      -0.712000
     16 C4          50.7300    11.9680    26.1440 c6         1 AQ9       0.117300
     17 O4          51.8300    11.2670    26.7150 oh         1 AQ9      -0.720000
     18 O3          50.9450    13.9710    27.5230 oh         1 AQ9      -0.673000
     19 O5          49.5230    12.2670    24.0800 os         1 AQ9      -0.462000
     20 O1          48.6960    14.2460    23.3590 os         1 AQ9      -0.430100
     21 C2          49.9030    14.2360    25.4010 c6         1 AQ9       0.142300
     22 O2          50.2340    15.6110    25.2910 oh         1 AQ9      -0.707000
     23 C51         48.7520    22.8940    28.1010 c6         1 AQ9       0.181300
     24 C71         49.7760    22.3480    29.0980 c6         1 AQ9       0.118300
     25 O41         49.2820    22.5590    30.4170 oh         1 AQ9      -0.722000
     26 C31         49.9990    20.8630    28.8310 c6         1 AQ9       0.095300
     27 O31         51.0780    20.3530    29.6210 oh         1 AQ9      -0.673000
     28 O51         49.1980    22.6140    26.7750 os         1 AQ9      -0.465000
     29 C21         50.3280    20.5960    27.3690 c6         1 AQ9       0.133300
     30 O21         50.3900    19.1990    27.1150 oh         1 AQ9      -0.710000
     31 O           49.5300    13.7320    21.3380 o          1 AQ9      -0.470000
     32 C42         47.4060    14.9190    21.4710 c6         1 AQ9      -0.087000
     33 C41         47.4850    15.0280    19.9370 c6         1 AQ9      -0.063400
     34 C43         47.1020    16.3390    22.0520 c6         1 AQ9      -0.033700
     35 C33         46.7930    16.4090    23.5500 c6         1 AQ9      -0.069400
     36 C46         47.3330    21.2940    24.1010 c2         1 AQ9      -0.166400
     37 C39         48.4350    20.0490    21.7420 c6         1 AQ9      -0.063400
     38 C8          47.5360    18.8330    22.0760 c6         1 AQ9      -0.036700
     39 C44         48.1070    17.4460    21.6130 c6         1 AQ9      -0.026000
     40 C16         49.5300    17.1840    22.1300 c3         1 AQ9      -0.092100
     41 C45         48.1400    17.4600    20.0660 c6         1 AQ9      -0.076400
     42 C40         48.4470    16.1010    19.4430 c6         1 AQ9      -0.075400
     43 O19         49.6100    21.0940    25.1440 os         1 AQ9      -0.430000
     44 H1          47.9780    23.2480    24.5330 ha         1 AQ9       0.175500
     45 H2          46.1860    23.0580    24.1150 ha         1 AQ9       0.175500
     46 H3          45.6840    20.5530    22.8770 hc         1 AQ9       0.049200
     47 H4          45.5890    20.1560    24.5890 hc         1 AQ9       0.049200
     48 H5          50.7120    13.8260    23.4280 h2         1 AQ9       0.069700
     49 H6          51.9430    13.6810    25.7290 h1         1 AQ9       0.059700
     50 H7          51.5150    11.6940    24.1560 h1         1 AQ9       0.070700
     51 H8          46.1930    13.7260    22.8740 hc         1 AQ9       0.046033
     52 H9          45.3080    14.3860    21.4900 hc         1 AQ9       0.046033
     53 H10         46.3910    13.0040    21.2740 hc         1 AQ9       0.046033
     54 H11         45.8740    17.7880    24.9410 hc         1 AQ9       0.037700
     55 H12         45.2050    17.8350    23.3150 hc         1 AQ9       0.037700
     56 H13         49.1990     9.9020    24.9610 h1         1 AQ9       0.039200
     57 H14         50.9090     9.4710    25.1880 h1         1 AQ9       0.039200
     58 H15         47.8070    19.0410    25.5560 hc         1 AQ9       0.061200
     59 H16         49.0130    18.4030    24.4420 hc         1 AQ9       0.061200
     60 H17         50.2340    19.8770    22.9700 hc         1 AQ9       0.055200
     61 H18         49.7160    21.5320    22.6490 hc         1 AQ9       0.055200
     62 H19         48.2800    20.7690    26.6850 h2         1 AQ9       0.044700
     63 H20         50.0580     8.7380    23.1340 ho         1 AQ9       0.503000
     64 H21         49.8070    11.7390    26.6900 h1         1 AQ9       0.060700
     65 H22         51.8560    11.4640    27.6600 ho         1 AQ9       0.510000
     66 H23         51.8490    14.0340    27.8520 ho         1 AQ9       0.451000
     67 H24         48.9320    14.1100    25.8960 h1         1 AQ9       0.069700
     68 H25         50.3970    15.9400    26.1850 ho         1 AQ9       0.520000
     69 H26         47.3280    25.7380    27.5420 ho         1 AQ9       0.503000
     70 H29         47.7860    22.4010    28.2770 h1         1 AQ9       0.062700
     71 H30         50.7250    22.8800    28.9590 h1         1 AQ9       0.061700
     72 H31         49.9670    22.2880    31.0400 ho         1 AQ9       0.510000
     73 H32         49.0770    20.3280    29.0820 h1         1 AQ9       0.053700
     74 H33         50.7200    19.9390    30.4150 ho         1 AQ9       0.449000
     75 H34         51.2830    21.0730    27.1190 h1         1 AQ9       0.072700
     76 H35         50.9500    18.8140    27.8030 ho         1 AQ9       0.511000
     77 H36         46.4770    15.2660    19.5870 hc         1 AQ9       0.049700
     78 H37         47.7470    14.0550    19.5180 hc         1 AQ9       0.049700
     79 H38         46.1610    16.5950    21.5490 hc         1 AQ9       0.039700
     80 H39         46.1210    15.6000    23.8350 hc         1 AQ9       0.054700
     81 H40         47.6970    16.2820    24.1430 hc         1 AQ9       0.054700
     82 H41         49.0360    19.8540    20.8540 hc         1 AQ9       0.041200
     83 H42         47.7820    20.8820    21.4770 hc         1 AQ9       0.041200
     84 H43         46.6310    18.9520    21.4710 hc         1 AQ9       0.036700
     85 H44         49.5640    16.9840    23.1960 hc         1 AQ9       0.042367
     86 H45         49.9840    16.3310    21.6290 hc         1 AQ9       0.042367
     87 H46         50.1720    18.0390    21.9210 hc         1 AQ9       0.042367
     88 H47         48.8710    18.1910    19.7150 hc         1 AQ9       0.037700
     89 H48         47.1610    17.7970    19.7070 hc         1 AQ9       0.037700
     90 H49         49.4760    15.8050    19.6570 hc         1 AQ9       0.048700
     91 H50         48.3730    16.1790    18.3550 hc         1 AQ9       0.048700
     92 C61         48.5680    24.3880    28.2290 c3         1 AQ9       0.169600
     93 H27         49.4760    24.8900    27.8770 h1         1 AQ9       0.040700
     94 O61         47.4350    24.7830    27.4530 oh         1 AQ9      -0.719000
     95 H28         48.4190    24.6330    29.2830 h1         1 AQ9       0.040700
@<TRIPOS>BOND
     1     1    36 2   
     2     1    44 1   
     3     1    45 1   
     4     2    12 1   
     5     2    13 1   
     6     2    36 1   
     7     2    43 1   
     8     3    11 1   
     9     3    36 1   
    10     3    46 1   
    11     3    47 1   
    12     4    19 1   
    13     4    20 1   
    14     4    21 1   
    15     4    48 1   
    16     5    16 1   
    17     5    18 1   
    18     5    21 1   
    19     5    49 1   
    20     6    10 1   
    21     6    16 1   
    22     6    19 1   
    23     6    50 1   
    24     7    20 1   
    25     7    31 2   
    26     7    32 1   
    27     8    32 1   
    28     8    51 1   
    29     8    52 1   
    30     8    53 1   
    31     9    11 1   
    32     9    35 1   
    33     9    54 1   
    34     9    55 1   
    35    10    15 1   
    36    10    56 1   
    37    10    57 1   
    38    11    12 1   
    39    11    38 1   
    40    12    58 1   
    41    12    59 1   
    42    13    37 1   
    43    13    60 1   
    44    13    61 1   
    45    14    28 1   
    46    14    29 1   
    47    14    43 1   
    48    14    62 1   
    49    15    63 1   
    50    16    17 1   
    51    16    64 1   
    52    17    65 1   
    53    18    66 1   
    54    21    22 1   
    55    21    67 1   
    56    22    68 1   
    57    23    24 1   
    58    23    28 1   
    59    23    70 1   
    60    23    92 1   
    61    24    25 1   
    62    24    26 1   
    63    24    71 1   
    64    25    72 1   
    65    26    27 1   
    66    26    29 1   
    67    26    73 1   
    68    27    74 1   
    69    29    30 1   
    70    29    75 1   
    71    30    76 1   
    72    32    33 1   
    73    32    34 1   
    74    33    42 1   
    75    33    77 1   
    76    33    78 1   
    77    34    35 1   
    78    34    39 1   
    79    34    79 1   
    80    35    80 1   
    81    35    81 1   
    82    37    38 1   
    83    37    82 1   
    84    37    83 1   
    85    38    39 1   
    86    38    84 1   
    87    39    40 1   
    88    39    41 1   
    89    40    85 1   
    90    40    86 1   
    91    40    87 1   
    92    41    42 1   
    93    41    88 1   
    94    41    89 1   
    95    42    90 1   
    96    42    91 1   
    97    69    94 1   
    98    92    93 1   
    99    92    94 1   
   100    92    95 1   
@<TRIPOS>SUBSTRUCTURE
     1 AQ9         1 TEMP              0 ****  ****    0 ROOT
