@<TRIPOS>MOLECULE
AQA
   19    19     1     0     0
SMALL
No Charge or Current Charge


@<TRIPOS>ATOM
      1 O6A          3.0970    -0.8830     0.2730 o          1 AQA      -0.697000
      2 C6           2.3770     0.0750     0.0100 c          1 AQA       0.724200
      3 O6B          2.8350     1.1900    -0.2200 o          1 AQA      -0.697000
      4 C5           0.8510    -0.1300    -0.0350 ce         1 AQA       0.076900
      5 O5           0.0920     1.0010    -0.3400 os         1 AQA      -0.343100
      6 C4           0.2540    -1.3340     0.2050 c2         1 AQA      -0.446200
      7 C3          -1.2430    -1.5310     0.1980 c6         1 AQA       0.225500
      8 O3          -1.5430    -2.1420    -1.0540 oh         1 AQA      -0.755000
      9 C2          -1.9830    -0.1660     0.3640 c6         1 AQA       0.152300
     10 O2          -1.8900     0.3230     1.7250 oh         1 AQA      -0.644000
     11 C1          -1.3090     0.8410    -0.6240 c6         1 AQA       0.344300
     12 O1          -1.8850     2.1420    -0.4990 oh         1 AQA      -0.728000
     13 H4           0.8550    -2.2080     0.4600 ha         1 AQA       0.204000
     14 H1          -1.4290     0.4740    -1.6550 h2         1 AQA       0.035700
     15 H3          -1.5320    -2.2000     1.0230 h1         1 AQA       0.041700
     16 HC          -0.8030    -2.7680    -1.2200 ho         1 AQA       0.508000
     17 H2          -3.0390    -0.2930     0.0850 h1         1 AQA       0.034700
     18 HB          -1.8260     1.2990     1.6250 ho         1 AQA       0.447000
     19 HA          -1.2780     2.7310    -1.0010 ho         1 AQA       0.516000
@<TRIPOS>BOND
     1     1     2 1   
     2     2     3 1   
     3     2     4 1   
     4     4     5 1   
     5     4     6 2   
     6     5    11 1   
     7     6     7 1   
     8     6    13 1   
     9     7     8 1   
    10     7     9 1   
    11     7    15 1   
    12     8    16 1   
    13     9    10 1   
    14     9    11 1   
    15     9    17 1   
    16    10    18 1   
    17    11    12 1   
    18    11    14 1   
    19    12    19 1   
@<TRIPOS>SUBSTRUCTURE
     1 AQA         1 TEMP              0 ****  ****    0 ROOT
