@<TRIPOS>MOLECULE
AQA
   19    19     1     0     0
SMALL
bcc


@<TRIPOS>ATOM
      1 O6A          3.0760    -0.9410     0.2040 o          1 AQA      -0.802300
      2 C6           2.3890     0.0800     0.0240 c          1 AQA       0.934800
      3 O6B          2.7830     1.2480    -0.1270 o          1 AQA      -0.802300
      4 C5           0.8760    -0.1280    -0.0160 ce         1 AQA       0.076900
      5 O5           0.1820     1.0060    -0.2470 os         1 AQA      -0.319900
      6 C4           0.2890    -1.3120     0.1750 c2         1 AQA      -0.396200
      7 C3          -1.1960    -1.4840     0.2080 c6         1 AQA       0.202300
      8 O3          -1.7100    -2.0900    -0.9670 oh         1 AQA      -0.632800
      9 C2          -1.8750    -0.1260     0.3420 c6         1 AQA       0.129100
     10 O2          -1.7620     0.2800     1.6820 oh         1 AQA      -0.581800
     11 C1          -1.1820     0.8480    -0.6020 c6         1 AQA       0.297900
     12 O1          -1.7880     2.0820    -0.5100 oh         1 AQA      -0.605800
     13 H4           0.9170    -2.1760     0.3450 ha         1 AQA       0.154000
     14 H1          -1.2240     0.4400    -1.6230 h2         1 AQA       0.035700
     15 H3          -1.4660    -2.0860     1.0870 h1         1 AQA       0.041700
     16 HC          -1.0930    -2.7740    -1.2470 ho         1 AQA       0.409000
     17 H2          -2.9250    -0.2200     0.0320 h1         1 AQA       0.034700
     18 HB          -2.2120     1.1250     1.7850 ho         1 AQA       0.408000
     19 HA          -1.4790     2.6500    -1.2250 ho         1 AQA       0.417000
@<TRIPOS>BOND
     1     1     2 1   
     2     2     3 1   
     3     2     4 1   
     4     4     5 1   
     5     4     6 2   
     6     5    11 1   
     7     6     7 1   
     8     6    13 1   
     9     7     8 1   
    10     7     9 1   
    11     7    15 1   
    12     8    16 1   
    13     9    10 1   
    14     9    11 1   
    15     9    17 1   
    16    10    18 1   
    17    11    12 1   
    18    11    14 1   
    19    12    19 1   
@<TRIPOS>SUBSTRUCTURE
     1 AQA         1 TEMP              0 ****  ****    0 ROOT
