@<TRIPOS>MOLECULE
AQB
   86    90     1     0     0
SMALL
abcg2


@<TRIPOS>ATOM
      1 N1           2.8810     3.5060     1.6920 nb         1 AQB      -0.272000
      2 C2           3.5710     4.5840     2.0880 ca         1 AQB       0.163900
      3 N3           4.8610     4.7510     2.0750 nb         1 AQB      -0.201000
      4 C4           5.5880     3.7090     1.5920 ca         1 AQB       0.027000
      5 C5           4.9940     2.5180     1.1360 ca         1 AQB      -0.145000
      6 C6           3.5560     2.4770     1.2290 ca         1 AQB       0.402900
      7 CAC         -7.9490     1.8760    -4.1970 c3         1 AQB      -0.080433
      8 CAD         -8.1470     3.5740    -2.3710 c3         1 AQB      -0.080433
      9 CAE         -9.8630     1.7730    -2.5910 c3         1 AQB      -0.080433
     10 OAG          6.6300    -1.0610    -0.4800 o          1 AQB      -0.584100
     11 OAH         -3.3140     1.5020    -0.9510 o          1 AQB      -0.591100
     12 CAI         -6.5050    -3.8290     0.6900 ca         1 AQB      -0.060000
     13 CAJ         -7.6230    -3.9630     1.4920 ca         1 AQB      -0.184000
     14 CAK         -6.2720    -2.6690    -0.0380 ca         1 AQB      -0.187000
     15 CAL         -0.7950     1.7720     0.5510 ca         1 AQB      -0.113000
     16 CAM         -0.2400    -0.5360     0.8650 ca         1 AQB      -0.113000
     17 CAN          0.5490     2.1050     0.6090 ca         1 AQB      -0.112500
     18 CAO          1.0990    -0.2030     0.9470 ca         1 AQB      -0.112500
     19 CAP          7.7500     2.7970     1.0420 ca         1 AQB      -0.131000
     20 CAR          6.9920     3.8190     1.5360 ca         1 AQB      -0.068000
     21 CAS         -8.3130    -1.7400     0.8750 ca         1 AQB      -0.168000
     22 CAT         -6.1820     1.4240    -1.5040 cc         1 AQB      -0.233000
     23 CAU          5.7830     1.4720     0.6210 ca         1 AQB      -0.111000
     24 CAV          8.8870    -2.8360    -0.7370 c3         1 AQB      -0.068400
     25 CAW          8.9630    -1.3310    -0.9580 c3         1 AQB      -0.159400
     26 CAX         10.0870    -3.5310    -1.3650 c3         1 AQB       0.165800
     27 NBA         -8.0110     0.1240    -1.3220 nd         1 AQB      -0.515800
     28 NBD         -4.7340    -0.0110    -0.0130 ns         1 AQB      -0.419100
     29 NBE          2.8940     1.3650     0.8400 nu         1 AQB      -0.930900
     30 CBG         -3.5100     0.5920    -0.1690 c          1 AQB       0.671100
     31 CBH         -8.5550    -2.9190     1.5880 ca         1 AQB       0.307000
     32 CBI         -1.2070     0.4470     0.6700 ca         1 AQB      -0.039000
     33 CBJ          1.5150     1.1210     0.8140 ca         1 AQB       0.284000
     34 CBK          7.1550     1.6040     0.5710 ca         1 AQB      -0.035000
     35 CBL         -7.1860    -1.6270     0.0760 ca         1 AQB       0.059800
     36 CBM         -7.5380     1.2280    -1.8510 cc         1 AQB       0.282300
     37 CBN         -5.8690     0.3420    -0.7130 cd         1 AQB       0.032600
     38 NBR         10.0400    -4.9780    -1.2580 n3         1 AQB      -0.710600
     39 NBS         -6.9870    -0.4270    -0.6420 na         1 AQB       0.173000
     40 H2           2.9700     5.4050     2.4650 h5         1 AQB       0.047100
     41 HAA         10.9100    -6.6830    -2.0960 h1         1 AQB       0.031200
     42 HAAA        10.7950    -5.3000    -3.1820 h1         1 AQB       0.031200
     43 HAAB        12.0410    -5.3330    -1.9240 h1         1 AQB       0.031200
     44 HAB         11.2310    -5.1610     0.5040 h1         1 AQB       0.031200
     45 HABA         9.4860    -5.0370     0.7700 h1         1 AQB       0.031200
     46 HABB        10.1660    -6.5270     0.1380 h1         1 AQB       0.031200
     47 HAC         -6.8930     2.1100    -4.3410 hc         1 AQB       0.036589
     48 HACA        -8.1070     0.8380    -4.4960 hc         1 AQB       0.036589
     49 HACB        -8.5260     2.5110    -4.8730 hc         1 AQB       0.036589
     50 HAD         -8.7500     4.2260    -3.0050 hc         1 AQB       0.036589
     51 HADA        -8.4230     3.7670    -1.3330 hc         1 AQB       0.036589
     52 HADB        -7.1040     3.8660    -2.5000 hc         1 AQB       0.036589
     53 HAE        -10.0740     0.7380    -2.8590 hc         1 AQB       0.036589
     54 HAEA       -10.2070     1.9320    -1.5680 hc         1 AQB       0.036589
     55 HAEB       -10.4540     2.4150    -3.2460 hc         1 AQB       0.036589
     56 HNAF        -9.9420    -3.9620     2.6390 hn         1 AQB       0.454500
     57 HNAA       -10.4330    -2.4330     2.1840 hn         1 AQB       0.454500
     58 HAI         -5.8080    -4.6520     0.6130 ha         1 AQB       0.115000
     59 HAJ         -7.7880    -4.8810     2.0420 ha         1 AQB       0.116000
     60 HAK         -5.4200    -2.5990    -0.7020 ha         1 AQB       0.128000
     61 HAL         -1.5160     2.5640     0.4180 ha         1 AQB       0.126000
     62 HAM         -0.5330    -1.5750     0.9600 ha         1 AQB       0.126000
     63 HAN          0.8330     3.1400     0.5050 ha         1 AQB       0.131000
     64 HAO          1.8290    -0.9870     1.1060 ha         1 AQB       0.131000
     65 HAP          8.8280     2.9030     1.0040 ha         1 AQB       0.113000
     66 HAR          7.4570     4.7290     1.8900 ha         1 AQB       0.137000
     67 HAS         -9.0090    -0.9130     0.9430 ha         1 AQB       0.139000
     68 HAT         -5.5430     2.2440    -1.7750 ha         1 AQB       0.170000
     69 HAU          5.3340     0.5650     0.2510 ha         1 AQB       0.144000
     70 HAV          8.8370    -3.0360     0.3360 hc         1 AQB       0.063700
     71 HAVA         7.9730    -3.2370    -1.1790 hc         1 AQB       0.063700
     72 HAW          9.8820    -0.9330    -0.5200 hc         1 AQB       0.058700
     73 HAWA         9.0220    -1.1150    -2.0310 hc         1 AQB       0.058700
     74 HAX         10.1070    -3.2770    -2.4300 h1         1 AQB       0.027200
     75 HAXA        11.0190    -3.1230    -0.9350 h1         1 AQB       0.027200
     76 HNBB         9.0030     0.9040     0.0850 hn         1 AQB       0.151000
     77 HNBC        -2.7660    -0.8000     1.1280 hn         1 AQB       0.148000
     78 HNBE         3.4570     0.5540     0.6430 hn         1 AQB       0.506000
     79 HNBD        -4.8420    -0.7170     0.7010 hn         1 AQB       0.328500
     80 NBB          8.0300     0.6390     0.0740 ns         1 AQB      -0.146000
     81 NBC         -2.5550     0.0620     0.6500 ns         1 AQB      -0.163000
     82 CBF          7.7540    -0.5940    -0.4290 c          1 AQB       0.608100
     83 CBT         -8.3780     2.1060    -2.7420 c3         1 AQB      -0.072300
     84 CAA         10.9960    -5.5960    -2.1520 c3         1 AQB       0.149100
     85 CAB         10.2450    -5.4390     0.0990 c3         1 AQB       0.149100
     86 NAF         -9.6510    -3.0250     2.4110 nv         1 AQB      -1.073000
@<TRIPOS>BOND
     1     1     2 ar  
     2     1     6 ar  
     3     2     3 ar  
     4     2    40 1   
     5     3     4 ar  
     6     4     5 ar  
     7     4    20 ar  
     8     5     6 ar  
     9     5    23 ar  
    10     6    29 1   
    11     7    47 1   
    12     7    48 1   
    13     7    49 1   
    14     7    83 1   
    15     8    50 1   
    16     8    51 1   
    17     8    52 1   
    18     8    83 1   
    19     9    53 1   
    20     9    54 1   
    21     9    55 1   
    22     9    83 1   
    23    10    82 2   
    24    11    30 2   
    25    12    13 ar  
    26    12    14 ar  
    27    12    58 1   
    28    13    31 ar  
    29    13    59 1   
    30    14    35 ar  
    31    14    60 1   
    32    15    17 ar  
    33    15    32 ar  
    34    15    61 1   
    35    16    18 ar  
    36    16    32 ar  
    37    16    62 1   
    38    17    33 ar  
    39    17    63 1   
    40    18    33 ar  
    41    18    64 1   
    42    19    20 ar  
    43    19    34 ar  
    44    19    65 1   
    45    20    66 1   
    46    21    31 ar  
    47    21    35 ar  
    48    21    67 1   
    49    22    36 1   
    50    22    37 2   
    51    22    68 1   
    52    23    34 ar  
    53    23    69 1   
    54    24    25 1   
    55    24    26 1   
    56    24    70 1   
    57    24    71 1   
    58    25    72 1   
    59    25    73 1   
    60    25    82 1   
    61    26    38 1   
    62    26    74 1   
    63    26    75 1   
    64    27    36 2   
    65    27    39 1   
    66    28    30 1   
    67    28    37 1   
    68    28    79 1   
    69    29    33 1   
    70    29    78 1   
    71    30    81 1   
    72    31    86 1   
    73    32    81 1   
    74    34    80 1   
    75    35    39 1   
    76    36    83 1   
    77    37    39 1   
    78    38    84 1   
    79    38    85 1   
    80    41    84 1   
    81    42    84 1   
    82    43    84 1   
    83    44    85 1   
    84    45    85 1   
    85    46    85 1   
    86    56    86 1   
    87    57    86 1   
    88    76    80 1   
    89    77    81 1   
    90    80    82 1   
@<TRIPOS>SUBSTRUCTURE
     1 AQB         1 TEMP              0 ****  ****    0 ROOT
