@<TRIPOS>MOLECULE
AQB
   86    90     1     0     0
SMALL
No Charge or Current Charge


@<TRIPOS>ATOM
      1 N1           2.9080     3.4350     1.1550 nb         1 AQB      -0.272000
      2 C2           3.6610     4.5190     1.4150 ca         1 AQB       0.163900
      3 N3           4.9990     4.6170     1.2900 nb         1 AQB      -0.201000
      4 C4           5.6620     3.5240     0.8600 ca         1 AQB       0.027000
      5 C5           4.9630     2.3290     0.5540 ca         1 AQB      -0.145000
      6 C6           3.5530     2.3400     0.7160 ca         1 AQB       0.402900
      7 CAC         -8.5580     3.2790    -3.2330 c3         1 AQB      -0.080433
      8 CAD         -8.9620     3.8470    -0.7980 c3         1 AQB      -0.080433
      9 CAE        -10.5430     2.3110    -2.0190 c3         1 AQB      -0.080433
     10 OAG          6.4240    -1.6800    -0.6340 o          1 AQB      -0.584100
     11 OAH         -3.8370     2.0330    -0.8220 o          1 AQB      -0.591100
     12 CAI         -6.5570    -3.9420    -0.9690 ca         1 AQB      -0.060000
     13 CAJ         -7.0560    -4.3610     0.2760 ca         1 AQB      -0.184000
     14 CAK         -6.6930    -2.6000    -1.3590 ca         1 AQB      -0.187000
     15 CAL         -0.8410     1.7120    -0.3450 ca         1 AQB      -0.113000
     16 CAM         -0.4990    -0.5510     0.4610 ca         1 AQB      -0.113000
     17 CAN          0.5320     1.9740    -0.1750 ca         1 AQB      -0.112500
     18 CAO          0.8720    -0.2840     0.6280 ca         1 AQB      -0.112500
     19 CAP          7.7600     2.4250     0.2610 ca         1 AQB      -0.131000
     20 CAR          7.0590     3.5570     0.7090 ca         1 AQB      -0.068000
     21 CAS         -7.8250    -2.1050     0.7370 ca         1 AQB      -0.168000
     22 CAT         -6.7780     1.6750    -1.2480 cc         1 AQB      -0.233000
     23 CAU          5.6750     1.1930     0.0960 ca         1 AQB      -0.111000
     24 CAV          9.2320    -3.0200    -0.2040 c3         1 AQB      -0.068400
     25 CAW          8.7200    -2.0310    -1.2810 c3         1 AQB      -0.159400
     26 CAX         10.4200    -3.8810    -0.6940 c3         1 AQB       0.165800
     27 NBA         -8.6250     0.3210    -1.2230 nd         1 AQB      -0.515800
     28 NBD         -5.0060     0.0770    -0.5570 ns         1 AQB      -0.419100
     29 NBE          2.7710     1.2030     0.4910 nu         1 AQB      -0.930900
     30 CBG         -3.8570     0.8440    -0.5410 c          1 AQB       0.671100
     31 CBH         -7.6900    -3.4450     1.1260 ca         1 AQB       0.307000
     32 CBI         -1.3710     0.4440    -0.0210 ca         1 AQB      -0.039000
     33 CBJ          1.3970     0.9820     0.3250 ca         1 AQB       0.284000
     34 CBK          7.0790     1.2350    -0.0460 ca         1 AQB      -0.035000
     35 CBL         -7.3260    -1.6740    -0.5060 ca         1 AQB       0.059800
     36 CBM         -8.1740     1.5470    -1.4470 cc         1 AQB       0.282300
     37 CBN         -6.3060     0.4550    -0.8770 cd         1 AQB       0.032600
     38 NBR         10.8490    -4.9460     0.2480 n3         1 AQB      -0.710600
     39 NBS         -7.4570    -0.3370    -0.8870 na         1 AQB       0.173000
     40 H2           3.1370     5.4070     1.7650 h5         1 AQB       0.047100
     41 HAA         12.0520    -6.7060     0.3090 h1         1 AQB       0.031200
     42 HAAA        11.3950    -6.3170    -1.2930 h1         1 AQB       0.031200
     43 HAAB        12.7480    -5.3660    -0.6330 h1         1 AQB       0.031200
     44 HAB         12.2060    -3.7710     1.4090 h1         1 AQB       0.031200
     45 HABA        10.5600    -3.8790     2.0830 h1         1 AQB       0.031200
     46 HABB        11.6520    -5.2660     2.1990 h1         1 AQB       0.031200
     47 HAC         -7.5260     3.6440    -3.1660 hc         1 AQB       0.036589
     48 HACA        -8.5890     2.4970    -4.0010 hc         1 AQB       0.036589
     49 HACB        -9.1860     4.1120    -3.5700 hc         1 AQB       0.036589
     50 HAD         -9.6020     4.6980    -1.0650 hc         1 AQB       0.036589
     51 HADA        -9.2860     3.4750     0.1820 hc         1 AQB       0.036589
     52 HADB        -7.9370     4.2210    -0.6950 hc         1 AQB       0.036589
     53 HAE        -10.6590     1.5280    -2.7790 hc         1 AQB       0.036589
     54 HAEA       -10.9430     1.9290    -1.0720 hc         1 AQB       0.036589
     55 HAEB       -11.1600     3.1650    -2.3230 hc         1 AQB       0.036589
     56 HNAF        -8.2070    -4.8560     2.5510 hn         1 AQB       0.454500
     57 HNAA        -8.7670    -3.2420     2.8880 hn         1 AQB       0.454500
     58 HAI         -6.0670    -4.6560    -1.6290 ha         1 AQB       0.115000
     59 HAJ         -6.9480    -5.4000     0.5750 ha         1 AQB       0.116000
     60 HAK         -6.3100    -2.2770    -2.3260 ha         1 AQB       0.128000
     61 HAL         -1.4670     2.5050    -0.7380 ha         1 AQB       0.126000
     62 HAM         -0.8840    -1.5380     0.7100 ha         1 AQB       0.126000
     63 HAN          0.9180     2.9480    -0.4540 ha         1 AQB       0.131000
     64 HAO          1.5250    -1.0670     1.0040 ha         1 AQB       0.131000
     65 HAP          8.8410     2.4790     0.1540 ha         1 AQB       0.113000
     66 HAR          7.6060     4.4680     0.9410 ha         1 AQB       0.137000
     67 HAS         -8.3150    -1.3940     1.3970 ha         1 AQB       0.139000
     68 HAT         -6.2170     2.5940    -1.3710 ha         1 AQB       0.170000
     69 HAU          5.1330     0.2920    -0.1630 ha         1 AQB       0.144000
     70 HAV          9.5300    -2.4510     0.6840 hc         1 AQB       0.063700
     71 HAVA         8.4130    -3.6850     0.0970 hc         1 AQB       0.063700
     72 HAW          9.5500    -1.3750    -1.5720 hc         1 AQB       0.058700
     73 HAWA         8.3840    -2.6090    -2.1510 hc         1 AQB       0.058700
     74 HAX         10.1190    -4.3460    -1.6430 h1         1 AQB       0.027200
     75 HAXA        11.2670    -3.2180    -0.9190 h1         1 AQB       0.027200
     76 HNBB         8.8320     0.3620    -0.6560 hn         1 AQB       0.151000
     77 HNBC        -2.9420    -0.8670     0.0430 hn         1 AQB       0.148000
     78 HNBE         3.3140     0.3440     0.5350 hn         1 AQB       0.506000
     79 HNBD        -4.8520    -0.8890    -0.2990 hn         1 AQB       0.328500
     80 NBB          7.8580     0.1340    -0.5000 ns         1 AQB      -0.146000
     81 NBC         -2.7450     0.1020    -0.1660 ns         1 AQB      -0.163000
     82 CBF          7.5410    -1.1930    -0.7670 c          1 AQB       0.608100
     83 CBT         -9.0500     2.7270    -1.8680 c3         1 AQB      -0.072300
     84 CAA         11.8130    -5.8810    -0.3750 c3         1 AQB       0.149100
     85 CAB         11.3420    -4.4350     1.5500 c3         1 AQB       0.149100
     86 NAF         -8.1750    -3.8610     2.3360 nv         1 AQB      -1.073000
@<TRIPOS>BOND
     1     1     2 ar  
     2     1     6 ar  
     3     2     3 ar  
     4     2    40 1   
     5     3     4 ar  
     6     4     5 ar  
     7     4    20 ar  
     8     5     6 ar  
     9     5    23 ar  
    10     6    29 1   
    11     7    47 1   
    12     7    48 1   
    13     7    49 1   
    14     7    83 1   
    15     8    50 1   
    16     8    51 1   
    17     8    52 1   
    18     8    83 1   
    19     9    53 1   
    20     9    54 1   
    21     9    55 1   
    22     9    83 1   
    23    10    82 2   
    24    11    30 2   
    25    12    13 ar  
    26    12    14 ar  
    27    12    58 1   
    28    13    31 ar  
    29    13    59 1   
    30    14    35 ar  
    31    14    60 1   
    32    15    17 ar  
    33    15    32 ar  
    34    15    61 1   
    35    16    18 ar  
    36    16    32 ar  
    37    16    62 1   
    38    17    33 ar  
    39    17    63 1   
    40    18    33 ar  
    41    18    64 1   
    42    19    20 ar  
    43    19    34 ar  
    44    19    65 1   
    45    20    66 1   
    46    21    31 ar  
    47    21    35 ar  
    48    21    67 1   
    49    22    36 1   
    50    22    37 2   
    51    22    68 1   
    52    23    34 ar  
    53    23    69 1   
    54    24    25 1   
    55    24    26 1   
    56    24    70 1   
    57    24    71 1   
    58    25    72 1   
    59    25    73 1   
    60    25    82 1   
    61    26    38 1   
    62    26    74 1   
    63    26    75 1   
    64    27    36 2   
    65    27    39 1   
    66    28    30 1   
    67    28    37 1   
    68    28    79 1   
    69    29    33 1   
    70    29    78 1   
    71    30    81 1   
    72    31    86 1   
    73    32    81 1   
    74    34    80 1   
    75    35    39 1   
    76    36    83 1   
    77    37    39 1   
    78    38    84 1   
    79    38    85 1   
    80    41    84 1   
    81    42    84 1   
    82    43    84 1   
    83    44    85 1   
    84    45    85 1   
    85    46    85 1   
    86    56    86 1   
    87    57    86 1   
    88    76    80 1   
    89    77    81 1   
    90    80    82 1   
@<TRIPOS>SUBSTRUCTURE
     1 AQB         1 TEMP              0 ****  ****    0 ROOT
