@<TRIPOS>MOLECULE
AQC
   28    30     1     0     0
SMALL
No Charge or Current Charge


@<TRIPOS>ATOM
      1 C4A          0.1600    -1.0390     0.0960 ca         1 AQC      -0.113600
      2 C1A          0.4090     0.3550     0.0800 ca         1 AQC      -0.140600
      3 C9          -0.7300     1.3470     0.0890 c          1 AQC       0.590300
      4 C8A         -2.1410     0.8090     0.1150 ca         1 AQC      -0.130600
      5 C5A         -2.3900    -0.5880     0.1310 ca         1 AQC      -0.133600
      6 C10         -1.2510    -1.5810     0.1230 c          1 AQC       0.590300
      7 C4           1.2540    -1.9310     0.0880 ca         1 AQC      -0.078000
      8 C3           2.5740    -1.4560     0.0640 ca         1 AQC      -0.078000
      9 C2           2.8360    -0.0690     0.0470 ca         1 AQC      -0.142600
     10 C1           1.7430     0.8240     0.0560 ca         1 AQC      -0.019000
     11 C8          -3.2340     1.7070     0.1240 ca         1 AQC      -0.067000
     12 C5          -3.7260    -1.0530     0.1550 ca         1 AQC      -0.067000
     13 C7          -4.5540     1.2300     0.1480 ca         1 AQC      -0.096000
     14 C6          -4.8000    -0.1490     0.1640 ca         1 AQC      -0.098000
     15 C1L          4.2460     0.4830     0.0210 c          1 AQC       0.614700
     16 N2           5.2770    -0.3890     0.0130 nt         1 AQC      -0.601000
     17 O9          -0.5140     2.5550     0.0750 o          1 AQC      -0.503100
     18 O10         -1.4660    -2.7890     0.1360 o          1 AQC      -0.509100
     19 O1L          4.4840     1.6790     0.0070 o          1 AQC      -0.590100
     20 H4           1.0850    -3.0070     0.1000 ha         1 AQC       0.141000
     21 H3           3.3820    -2.1830     0.0580 ha         1 AQC       0.118000
     22 H1           1.9330     1.8960     0.0440 ha         1 AQC       0.161000
     23 H8          -3.0650     2.7820     0.1120 ha         1 AQC       0.139000
     24 H5          -3.9380    -2.1210     0.1680 ha         1 AQC       0.138000
     25 H7          -5.3860     1.9320     0.1540 ha         1 AQC       0.122000
     26 H6          -5.8230    -0.5200     0.1830 ha         1 AQC       0.122000
     27 HN2          6.2210    -0.0320    -0.0050 hn         1 AQC       0.316000
     28 HN2A         5.1060    -1.3820     0.0240 hn         1 AQC       0.316000
@<TRIPOS>BOND
     1     1     2 ar  
     2     1     6 1   
     3     1     7 ar  
     4     2     3 1   
     5     2    10 ar  
     6     3     4 1   
     7     3    17 2   
     8     4     5 ar  
     9     4    11 ar  
    10     5     6 1   
    11     5    12 ar  
    12     6    18 2   
    13     7     8 ar  
    14     7    20 1   
    15     8     9 ar  
    16     8    21 1   
    17     9    10 ar  
    18     9    15 1   
    19    10    22 1   
    20    11    13 ar  
    21    11    23 1   
    22    12    14 ar  
    23    12    24 1   
    24    13    14 ar  
    25    13    25 1   
    26    14    26 1   
    27    15    16 1   
    28    15    19 2   
    29    16    27 1   
    30    16    28 1   
@<TRIPOS>SUBSTRUCTURE
     1 AQC         1 TEMP              0 ****  ****    0 ROOT
