@<TRIPOS>MOLECULE
AQC
   28    30     1     0     0
SMALL
abcg2


@<TRIPOS>ATOM
      1 C4A          0.1520    -1.0400     0.0060 ca         1 AQC      -0.113600
      2 C1A          0.4060     0.3330     0.0210 ca         1 AQC      -0.140600
      3 C9          -0.7040     1.3170     0.0840 c          1 AQC       0.590300
      4 C8A         -2.0880     0.7920     0.1330 ca         1 AQC      -0.130600
      5 C5A         -2.3430    -0.5840     0.1130 ca         1 AQC      -0.133600
      6 C10         -1.2360    -1.5660     0.0440 c          1 AQC       0.590300
      7 C4           1.2160    -1.9330    -0.0510 ca         1 AQC      -0.078000
      8 C3           2.5180    -1.4650    -0.0810 ca         1 AQC      -0.078000
      9 C2           2.7770    -0.0960    -0.0630 ca         1 AQC      -0.142600
     10 C1           1.7140     0.7960    -0.0280 ca         1 AQC      -0.019000
     11 C8          -3.1510     1.6880     0.2000 ca         1 AQC      -0.067000
     12 C5          -3.6560    -1.0450     0.1590 ca         1 AQC      -0.067000
     13 C7          -4.4540     1.2210     0.2460 ca         1 AQC      -0.096000
     14 C6          -4.7070    -0.1460     0.2250 ca         1 AQC      -0.098000
     15 C1L          4.1670     0.4680    -0.1270 c          1 AQC       0.614700
     16 N2           5.1450    -0.3270     0.3240 nt         1 AQC      -0.601000
     17 O9          -0.4820     2.5090     0.0970 o          1 AQC      -0.503100
     18 O10         -1.4510    -2.7590     0.0210 o          1 AQC      -0.509100
     19 O1L          4.3610     1.5870    -0.5750 o          1 AQC      -0.590100
     20 H4           1.0310    -2.9980    -0.0750 ha         1 AQC       0.141000
     21 H3           3.3230    -2.1850    -0.1400 ha         1 AQC       0.118000
     22 H1           1.9030     1.8610    -0.0280 ha         1 AQC       0.161000
     23 H8          -2.9600     2.7520     0.2160 ha         1 AQC       0.139000
     24 H5          -3.8520    -2.1080     0.1430 ha         1 AQC       0.138000
     25 H7          -5.2750     1.9230     0.2980 ha         1 AQC       0.122000
     26 H6          -5.7250    -0.5090     0.2610 ha         1 AQC       0.122000
     27 HN2          6.0960     0.0080     0.3260 hn         1 AQC       0.316000
     28 HN2A         4.9660    -1.1820     0.8220 hn         1 AQC       0.316000
@<TRIPOS>BOND
     1     1     2 ar  
     2     1     6 1   
     3     1     7 ar  
     4     2     3 1   
     5     2    10 ar  
     6     3     4 1   
     7     3    17 2   
     8     4     5 ar  
     9     4    11 ar  
    10     5     6 1   
    11     5    12 ar  
    12     6    18 2   
    13     7     8 ar  
    14     7    20 1   
    15     8     9 ar  
    16     8    21 1   
    17     9    10 ar  
    18     9    15 1   
    19    10    22 1   
    20    11    13 ar  
    21    11    23 1   
    22    12    14 ar  
    23    12    24 1   
    24    13    14 ar  
    25    13    25 1   
    26    14    26 1   
    27    15    16 1   
    28    15    19 2   
    29    16    27 1   
    30    16    28 1   
@<TRIPOS>SUBSTRUCTURE
     1 AQC         1 TEMP              0 ****  ****    0 ROOT
