@<TRIPOS>MOLECULE
AQD
   53    55     1     0     0
SMALL
bcc


@<TRIPOS>ATOM
      1 CAB          4.7750    -3.3070     0.2970 c3         1 AQD       0.123700
      2 OAR          3.5930    -2.5420     0.4410 os         1 AQD      -0.292900
      3 CAW          3.6390    -1.2210     0.2210 ca         1 AQD       0.244100
      4 CAK          4.8070    -0.5520    -0.1170 ca         1 AQD      -0.323000
      5 CAV          4.8170     0.8310    -0.3670 ca         1 AQD       0.272600
      6 NAP          5.9600     1.4800    -0.6710 nu         1 AQD      -0.775600
      7 CAA          7.2350     0.8310    -0.8260 c3         1 AQD       0.218100
      8 CAU          3.5850     1.5050    -0.2830 ca         1 AQD      -0.112600
      9 CLA          3.5270     3.2180    -0.5800 cl         1 AQD      -0.125400
     10 CAL          2.4250     0.8360     0.0370 ca         1 AQD      -0.014000
     11 CAX          2.4200    -0.5290     0.3050 ca         1 AQD      -0.246600
     12 CAS          1.1620    -1.2080     0.7210 c          1 AQD       0.701700
     13 OAD          1.0990    -1.9380     1.7010 o          1 AQD      -0.591100
     14 NAQ          0.0980    -0.9400    -0.0600 ns         1 AQD      -0.566900
     15 CAZ         -1.2340    -1.4170     0.2120 c5         1 AQD       0.107700
     16 CAY         -2.1160    -0.5000     1.1150 c5         1 AQD       0.166500
     17 CAC         -1.4890     0.8300     1.4880 c3         1 AQD      -0.077100
     18 CAM         -2.0460    -1.5930    -1.0710 c5         1 AQD      -0.096400
     19 CAN         -3.4670    -1.4190    -0.5800 c5         1 AQD       0.168800
     20 NBA         -3.3450    -0.3090     0.3440 n3         1 AQD      -0.739600
     21 CAO         -4.5200    -0.0790     1.1480 c3         1 AQD       0.222100
     22 CAT         -5.6840     0.4110     0.3250 ca         1 AQD      -0.086300
     23 CAI         -5.5200     1.4720    -0.5650 ca         1 AQD      -0.116500
     24 CAG         -6.5930     1.9430    -1.3060 ca         1 AQD      -0.133500
     25 CAF         -7.8480     1.3590    -1.1720 ca         1 AQD      -0.128000
     26 CAH         -8.0190     0.3010    -0.2910 ca         1 AQD      -0.133500
     27 CAJ         -6.9400    -0.1700     0.4500 ca         1 AQD      -0.116500
     28 H1           5.5440    -3.0090     1.0130 h1         1 AQD       0.043033
     29 H2           4.4950    -4.3390     0.4920 h1         1 AQD       0.043033
     30 H3           5.1840    -3.2380    -0.7140 h1         1 AQD       0.043033
     31 H4           5.7360    -1.0980    -0.1960 ha         1 AQD       0.141000
     32 H5           5.9050     2.4550    -0.9070 hn         1 AQD       0.449800
     33 H6           7.9750     1.5870    -1.0710 h1         1 AQD       0.038700
     34 H7           7.5530     0.3360     0.0940 h1         1 AQD       0.038700
     35 H8           7.2300     0.0870    -1.6270 h1         1 AQD       0.038700
     36 H9           1.5010     1.3990     0.1030 ha         1 AQD       0.147000
     37 H10          0.2350    -0.3620    -0.8740 hn         1 AQD       0.314500
     38 H11         -1.1400    -2.3850     0.7060 h1         1 AQD       0.077700
     39 H12         -2.3300    -1.0540     2.0420 h1         1 AQD       0.037700
     40 H13         -2.2010     1.4460     2.0390 hc         1 AQD       0.038367
     41 H14         -0.6200     0.6950     2.1330 hc         1 AQD       0.038367
     42 H15         -1.1810     1.3890     0.6040 hc         1 AQD       0.038367
     43 H16         -1.8080    -0.8050    -1.7920 hc         1 AQD       0.055200
     44 H17         -1.8670    -2.5550    -1.5500 hc         1 AQD       0.055200
     45 H18         -4.1700    -1.1900    -1.3830 h1         1 AQD       0.041700
     46 H19         -3.8200    -2.3400    -0.0850 h1         1 AQD       0.041700
     47 H21         -4.8220    -0.9830     1.7040 h1         1 AQD       0.038200
     48 H22         -4.2840     0.6780     1.9030 h1         1 AQD       0.038200
     49 H23         -4.5410     1.9210    -0.6790 ha         1 AQD       0.134500
     50 H24         -6.4530     2.7680    -1.9930 ha         1 AQD       0.128000
     51 H25         -8.6840     1.7240    -1.7550 ha         1 AQD       0.128000
     52 H26         -8.9910    -0.1650    -0.1830 ha         1 AQD       0.128000
     53 H27         -7.0770    -1.0040     1.1290 ha         1 AQD       0.134500
@<TRIPOS>BOND
     1     1     2 1   
     2     1    28 1   
     3     1    29 1   
     4     1    30 1   
     5     2     3 1   
     6     3     4 ar  
     7     3    11 ar  
     8     4     5 ar  
     9     4    31 1   
    10     5     6 1   
    11     5     8 ar  
    12     6     7 1   
    13     6    32 1   
    14     7    33 1   
    15     7    34 1   
    16     7    35 1   
    17     8     9 1   
    18     8    10 ar  
    19    10    11 ar  
    20    10    36 1   
    21    11    12 1   
    22    12    13 2   
    23    12    14 1   
    24    14    15 1   
    25    14    37 1   
    26    15    16 1   
    27    15    18 1   
    28    15    38 1   
    29    16    17 1   
    30    16    20 1   
    31    16    39 1   
    32    17    40 1   
    33    17    41 1   
    34    17    42 1   
    35    18    19 1   
    36    18    43 1   
    37    18    44 1   
    38    19    20 1   
    39    19    45 1   
    40    19    46 1   
    41    20    21 1   
    42    21    22 1   
    43    21    47 1   
    44    21    48 1   
    45    22    23 ar  
    46    22    27 ar  
    47    23    24 ar  
    48    23    49 1   
    49    24    25 ar  
    50    24    50 1   
    51    25    26 ar  
    52    25    51 1   
    53    26    27 ar  
    54    26    52 1   
    55    27    53 1   
@<TRIPOS>SUBSTRUCTURE
     1 AQD         1 TEMP              0 ****  ****    0 ROOT
