@<TRIPOS>MOLECULE
AQD
   53    55     1     0     0
SMALL
No Charge or Current Charge


@<TRIPOS>ATOM
      1 CAB          5.1380    -2.6530     0.3070 c3         1 AQD       0.146900
      2 OAR          3.7400    -2.3270     0.4110 os         1 AQD      -0.316100
      3 CAW          3.2370    -1.0730     0.1260 ca         1 AQD       0.244100
      4 CAK          4.0860    -0.0380    -0.3210 ca         1 AQD      -0.305000
      5 CAV          3.5680     1.2220    -0.6460 ca         1 AQD       0.411000
      6 NAP          4.4160     2.2430    -1.0870 nu         1 AQD      -0.969200
      7 CAA          5.7810     2.1040    -1.6280 c3         1 AQD       0.218100
      8 CAU          2.1850     1.4590    -0.5210 ca         1 AQD      -0.021000
      9 ClA          1.4870     3.0380    -0.9100 cl         1 AQD      -0.217000
     10 CAL          1.3350     0.4370    -0.0790 ca         1 AQD       0.004000
     11 CAX          1.8460    -0.8420     0.2500 ca         1 AQD      -0.246600
     12 CAS          0.9080    -1.9200     0.7400 c          1 AQD       0.634700
     13 OAD          1.2510    -2.8140     1.5030 o          1 AQD      -0.591100
     14 NAQ         -0.3970    -1.7820     0.3150 ns         1 AQD      -0.499900
     15 CAZ         -1.4540    -2.6260     0.9070 c5         1 AQD       0.107700
     16 CAY         -2.3360    -1.6750     1.7890 c5         1 AQD       0.166500
     17 CAC         -1.5660    -0.8720     2.8670 c3         1 AQD      -0.077100
     18 CAM         -2.3950    -2.9490    -0.2970 c5         1 AQD      -0.096400
     19 CAN         -3.5330    -1.8840    -0.1970 c5         1 AQD       0.168800
     20 NBA         -2.9910    -0.8610     0.7310 n3         1 AQD      -0.739600
     21 CAO         -3.9690     0.1540     1.1830 c3         1 AQD       0.222100
     22 CAT         -4.5500     0.9690     0.0310 ca         1 AQD      -0.086300
     23 CAI         -3.7420     1.8970    -0.6550 ca         1 AQD      -0.098500
     24 CAG         -4.2700     2.6500    -1.7180 ca         1 AQD      -0.115500
     25 CAF         -5.6110     2.4790    -2.1020 ca         1 AQD      -0.110000
     26 CAH         -6.4220     1.5540    -1.4230 ca         1 AQD      -0.115500
     27 CAJ         -5.8940     0.8000    -0.3600 ca         1 AQD      -0.098500
     28 H1           5.7360    -2.0240     0.9780 h1         1 AQD       0.043033
     29 H2           5.3040    -3.7010     0.5870 h1         1 AQD       0.043033
     30 H3           5.4950    -2.5160    -0.7210 h1         1 AQD       0.043033
     31 H4           5.1510    -0.2030    -0.4210 ha         1 AQD       0.123000
     32 H5           3.9340     3.1250    -1.2800 hn         1 AQD       0.505000
     33 H6           6.1720     3.0830    -1.9360 h1         1 AQD       0.038700
     34 H7           6.4590     1.6870    -0.8710 h1         1 AQD       0.038700
     35 H8           5.7820     1.4400    -2.5040 h1         1 AQD       0.038700
     36 H9           0.2760     0.6650     0.0280 ha         1 AQD       0.129000
     37 H10         -0.6140    -1.0000    -0.2870 hn         1 AQD       0.314500
     38 H11         -1.0960    -3.5200     1.4370 h1         1 AQD       0.077700
     39 H12         -3.0890    -2.2770     2.3200 h1         1 AQD       0.037700
     40 H13         -2.2580    -0.3370     3.5270 hc         1 AQD       0.038367
     41 H14         -0.9670    -1.5410     3.4950 hc         1 AQD       0.038367
     42 H15         -0.8920    -0.1320     2.4220 hc         1 AQD       0.038367
     43 H16         -1.8810    -2.9120    -1.2650 hc         1 AQD       0.055200
     44 H17         -2.8140    -3.9560    -0.2080 hc         1 AQD       0.055200
     45 H18         -3.7830    -1.4620    -1.1800 h1         1 AQD       0.041700
     46 H19         -4.4460    -2.3390     0.2120 h1         1 AQD       0.041700
     47 H21         -4.7870    -0.3320     1.7340 h1         1 AQD       0.038200
     48 H22         -3.4890     0.8550     1.8790 h1         1 AQD       0.038200
     49 H23         -2.7020     2.0290    -0.3630 ha         1 AQD       0.116500
     50 H24         -3.6400     3.3640    -2.2440 ha         1 AQD       0.110000
     51 H25         -6.0200     3.0610    -2.9250 ha         1 AQD       0.110000
     52 H26         -7.4600     1.4190    -1.7210 ha         1 AQD       0.110000
     53 H27         -6.5280     0.0850     0.1590 ha         1 AQD       0.116500
@<TRIPOS>BOND
     1     1     2 1   
     2     1    28 1   
     3     1    29 1   
     4     1    30 1   
     5     2     3 1   
     6     3     4 ar  
     7     3    11 ar  
     8     4     5 ar  
     9     4    31 1   
    10     5     6 1   
    11     5     8 ar  
    12     6     7 1   
    13     6    32 1   
    14     7    33 1   
    15     7    34 1   
    16     7    35 1   
    17     8     9 1   
    18     8    10 ar  
    19    10    11 ar  
    20    10    36 1   
    21    11    12 1   
    22    12    13 2   
    23    12    14 1   
    24    14    15 1   
    25    14    37 1   
    26    15    16 1   
    27    15    18 1   
    28    15    38 1   
    29    16    17 1   
    30    16    20 1   
    31    16    39 1   
    32    17    40 1   
    33    17    41 1   
    34    17    42 1   
    35    18    19 1   
    36    18    43 1   
    37    18    44 1   
    38    19    20 1   
    39    19    45 1   
    40    19    46 1   
    41    20    21 1   
    42    21    22 1   
    43    21    47 1   
    44    21    48 1   
    45    22    23 ar  
    46    22    27 ar  
    47    23    24 ar  
    48    23    49 1   
    49    24    25 ar  
    50    24    50 1   
    51    25    26 ar  
    52    25    51 1   
    53    26    27 ar  
    54    26    52 1   
    55    27    53 1   
@<TRIPOS>SUBSTRUCTURE
     1 AQD         1 TEMP              0 ****  ****    0 ROOT
