@<TRIPOS>MOLECULE
AQE
   48    52     1     0     0
SMALL
No Charge or Current Charge


@<TRIPOS>ATOM
      1 NAN         -2.4530     3.1280    -0.5690 nc         1 AQE      -0.658000
      2 CAM         -1.5870     4.1480    -0.2770 cc         1 AQE       0.275900
      3 CAL         -0.4160     3.7800     0.3310 cd         1 AQE      -0.295000
      4 SAK         -0.3640     2.0470     0.5750 ss         1 AQE       0.010600
      5 CAJ         -1.9340     1.9530    -0.2140 cd         1 AQE       0.523200
      6 CAA         -2.7030     0.7260    -0.3270 cd         1 AQE      -0.204000
      7 CAE         -2.3780    -0.6750    -0.0310 ca         1 AQE      -0.140800
      8 CAB         -4.0710     0.8640    -0.5310 cc         1 AQE      -0.109100
      9 NAC         -4.5900    -0.4110    -0.2530 na         1 AQE      -0.317400
     10 CAD         -3.6000    -1.3130     0.0660 ca         1 AQE       0.378500
     11 NAI         -3.7490    -2.6070     0.3810 nb         1 AQE      -0.698000
     12 CAH         -2.6210    -3.3170     0.5840 ca         1 AQE       0.379900
     13 CAG         -1.3390    -2.7800     0.4180 ca         1 AQE      -0.261000
     14 CAF         -1.1780    -1.4230     0.0710 ca         1 AQE       0.363000
     15 NAO          0.1030    -0.9340    -0.3160 nh         1 AQE      -0.766400
     16 CAY          1.3310    -1.6720     0.1560 c6         1 AQE       0.183800
     17 CAP          0.2280    -0.4930    -1.7360 c6         1 AQE       0.185800
     18 CAQ          1.5370     0.2830    -2.0120 c6         1 AQE      -0.081400
     19 CAR          2.7810    -0.5310    -1.5870 c6         1 AQE      -0.065400
     20 CAS          2.7220    -0.9680    -0.0870 c6         1 AQE       0.185200
     21 CAX          2.8940     0.2350     0.9020 c6         1 AQE      -0.099400
     22 CAW          4.3180     0.8470     0.8850 c6         1 AQE      -0.074400
     23 CAV          5.3770    -0.2520     1.1190 c6         1 AQE      -0.113400
     24 CAU          5.1910    -1.4190     0.1240 c6         1 AQE       0.154800
     25 NAT          3.8090    -1.9610     0.1910 n7         1 AQE      -0.855400
     26 H1          -1.8800     5.1580    -0.5330 h4         1 AQE       0.038100
     27 H2           0.4000     4.4160     0.6500 h4         1 AQE       0.158000
     28 H3          -4.6920     1.7350    -0.7340 h4         1 AQE       0.229000
     29 H4          -5.5710    -0.6580    -0.2660 hn         1 AQE       0.365000
     30 H5          -2.7510    -4.3690     0.8390 h4         1 AQE       0.018100
     31 H6          -0.4950    -3.4510     0.5210 ha         1 AQE       0.124000
     32 H7           1.2370    -1.8900     1.2300 h1         1 AQE       0.046200
     33 H8           1.3710    -2.6420    -0.3610 h1         1 AQE       0.046200
     34 H9           0.1950    -1.3730    -2.3960 h1         1 AQE       0.049200
     35 H10         -0.6190     0.1480    -2.0180 h1         1 AQE       0.049200
     36 H11          1.5990     0.5120    -3.0850 hc         1 AQE       0.051200
     37 H12          1.5200     1.2530    -1.5010 hc         1 AQE       0.051200
     38 H13          2.8470    -1.4260    -2.2220 hc         1 AQE       0.049700
     39 H14          3.6820     0.0560    -1.8010 hc         1 AQE       0.049700
     40 H15          2.1710     1.0240     0.6840 hc         1 AQE       0.051200
     41 H16          2.6680    -0.0990     1.9240 hc         1 AQE       0.051200
     42 H17          4.5050     1.3530    -0.0720 hc         1 AQE       0.040200
     43 H18          4.4020     1.6190     1.6630 hc         1 AQE       0.040200
     44 H19          6.3860     0.1690     1.0150 hc         1 AQE       0.041700
     45 H20          5.3000    -0.6290     2.1480 hc         1 AQE       0.041700
     46 H21          5.4170    -1.0780    -0.8960 h1         1 AQE       0.051200
     47 H22          5.9080    -2.2190     0.3620 h1         1 AQE       0.051200
     48 H23          3.6660    -2.3260     1.1380 hn         1 AQE       0.403000
@<TRIPOS>BOND
     1     1     2 1   
     2     1     5 2   
     3     2     3 2   
     4     2    26 1   
     5     3     4 1   
     6     3    27 1   
     7     4     5 1   
     8     5     6 1   
     9     6     7 1   
    10     6     8 2   
    11     7    10 ar  
    12     7    14 ar  
    13     8     9 1   
    14     8    28 1   
    15     9    10 1   
    16     9    29 1   
    17    10    11 ar  
    18    11    12 ar  
    19    12    13 ar  
    20    12    30 1   
    21    13    14 ar  
    22    13    31 1   
    23    14    15 1   
    24    15    16 1   
    25    15    17 1   
    26    16    20 1   
    27    16    32 1   
    28    16    33 1   
    29    17    18 1   
    30    17    34 1   
    31    17    35 1   
    32    18    19 1   
    33    18    36 1   
    34    18    37 1   
    35    19    20 1   
    36    19    38 1   
    37    19    39 1   
    38    20    21 1   
    39    20    25 1   
    40    21    22 1   
    41    21    40 1   
    42    21    41 1   
    43    22    23 1   
    44    22    42 1   
    45    22    43 1   
    46    23    24 1   
    47    23    44 1   
    48    23    45 1   
    49    24    25 1   
    50    24    46 1   
    51    24    47 1   
    52    25    48 1   
@<TRIPOS>SUBSTRUCTURE
     1 AQE         1 TEMP              0 ****  ****    0 ROOT
