@<TRIPOS>MOLECULE
AQE
   48    52     1     0     0
SMALL
bcc


@<TRIPOS>ATOM
      1 NAN         -2.0930     2.9060    -1.1170 nc         1 AQE      -0.658000
      2 CAM         -1.2290     3.9430    -0.9290 cc         1 AQE       0.341200
      3 CAL         -0.2800     3.7560     0.0250 cd         1 AQE      -0.233400
      4 SAK         -0.4800     2.2090     0.7300 ss         1 AQE      -0.134300
      5 CAJ         -1.8210     1.9130    -0.3220 cd         1 AQE       0.523200
      6 CAA         -2.6270     0.7120    -0.2020 cd         1 AQE      -0.204000
      7 CAE         -2.2560    -0.6620     0.0200 ca         1 AQE      -0.206100
      8 CAB         -3.9970     0.7620    -0.1470 cc         1 AQE      -0.059100
      9 NAC         -4.4920    -0.4700     0.1140 na         1 AQE      -0.267100
     10 CAD         -3.4650    -1.3560     0.2460 ca         1 AQE       0.443800
     11 NAI         -3.6220    -2.6360     0.5520 nb         1 AQE      -0.698000
     12 CAH         -2.4860    -3.3050     0.6480 ca         1 AQE       0.445200
     13 CAG         -1.2250    -2.7680     0.3960 ca         1 AQE      -0.344300
     14 CAF         -1.0670    -1.4280     0.0300 ca         1 AQE       0.224600
     15 NAO          0.1620    -0.8880    -0.3230 nh         1 AQE      -0.628000
     16 CAY          1.3290    -1.7160    -0.0640 c6         1 AQE       0.183800
     17 CAP          0.2170    -0.3090    -1.6690 c6         1 AQE       0.185800
     18 CAQ          1.4710     0.5210    -1.8640 c6         1 AQE      -0.081400
     19 CAR          2.7200    -0.2880    -1.5460 c6         1 AQE      -0.065400
     20 CAS          2.6430    -0.9330    -0.1560 c6         1 AQE       0.185200
     21 CAX          2.7220     0.1070     0.9730 c6         1 AQE      -0.099400
     22 CAW          4.1060     0.7370     1.0910 c6         1 AQE      -0.074400
     23 CAV          5.1830    -0.3370     1.2020 c6         1 AQE      -0.113400
     24 CAU          5.0450    -1.3560     0.0750 c6         1 AQE       0.154800
     25 NAT          3.7110    -1.9300    -0.0360 n7         1 AQE      -0.800200
     26 H1          -1.3250     4.8350    -1.5320 h4         1 AQE       0.038100
     27 H2           0.5110     4.4250     0.3240 h4         1 AQE       0.176000
     28 H3          -4.6460     1.6170    -0.2370 h4         1 AQE       0.179000
     29 H4          -5.4670    -0.6950     0.2330 hn         1 AQE       0.314700
     30 H5          -2.5640    -4.3540     0.9120 h4         1 AQE       0.018100
     31 H6          -0.3800    -3.4380     0.4460 ha         1 AQE       0.142000
     32 H7           1.2510    -2.1340     0.9440 h1         1 AQE       0.046200
     33 H8           1.3800    -2.5620    -0.7680 h1         1 AQE       0.046200
     34 H9           0.2030    -1.1230    -2.4100 h1         1 AQE       0.049200
     35 H10         -0.6670     0.2980    -1.8530 h1         1 AQE       0.049200
     36 H11          1.5020     0.8610    -2.9010 hc         1 AQE       0.051200
     37 H12          1.4230     1.4190    -1.2430 hc         1 AQE       0.051200
     38 H13          2.8270    -1.0920    -2.2820 hc         1 AQE       0.049700
     39 H14          3.6040     0.3440    -1.6450 hc         1 AQE       0.049700
     40 H15          1.9610     0.8760     0.8460 hc         1 AQE       0.051200
     41 H16          2.4820    -0.3950     1.9180 hc         1 AQE       0.051200
     42 H17          4.3050     1.3760     0.2250 hc         1 AQE       0.040200
     43 H18          4.1360     1.3960     1.9610 hc         1 AQE       0.040200
     44 H19          6.1810     0.1100     1.1870 hc         1 AQE       0.041700
     45 H20          5.0840    -0.8530     2.1630 hc         1 AQE       0.041700
     46 H21          5.3100    -0.8910    -0.8790 h1         1 AQE       0.051200
     47 H22          5.7520    -2.1760     0.2170 h1         1 AQE       0.051200
     48 H23          3.5430    -2.4840     0.7980 hn         1 AQE       0.347800
@<TRIPOS>BOND
     1     1     2 1   
     2     1     5 2   
     3     2     3 2   
     4     2    26 1   
     5     3     4 1   
     6     3    27 1   
     7     4     5 1   
     8     5     6 1   
     9     6     7 1   
    10     6     8 2   
    11     7    10 ar  
    12     7    14 ar  
    13     8     9 1   
    14     8    28 1   
    15     9    10 1   
    16     9    29 1   
    17    10    11 ar  
    18    11    12 ar  
    19    12    13 ar  
    20    12    30 1   
    21    13    14 ar  
    22    13    31 1   
    23    14    15 1   
    24    15    16 1   
    25    15    17 1   
    26    16    20 1   
    27    16    32 1   
    28    16    33 1   
    29    17    18 1   
    30    17    34 1   
    31    17    35 1   
    32    18    19 1   
    33    18    36 1   
    34    18    37 1   
    35    19    20 1   
    36    19    38 1   
    37    19    39 1   
    38    20    21 1   
    39    20    25 1   
    40    21    22 1   
    41    21    40 1   
    42    21    41 1   
    43    22    23 1   
    44    22    42 1   
    45    22    43 1   
    46    23    24 1   
    47    23    44 1   
    48    23    45 1   
    49    24    25 1   
    50    24    46 1   
    51    24    47 1   
    52    25    48 1   
@<TRIPOS>SUBSTRUCTURE
     1 AQE         1 TEMP              0 ****  ****    0 ROOT
