@<TRIPOS>MOLECULE
AQH
   65    68     1     0     0
SMALL
No Charge or Current Charge


@<TRIPOS>ATOM
      1 PA         -12.2630   -70.3520   -54.4580 p5         1 AQH       1.479800
      2 PB          -9.8010   -70.6390   -53.6130 p5         1 AQH       1.485800
      3 C7          -5.6930   -73.1620   -47.7710 c3         1 AQH       0.119600
      4 O7          -4.9360   -72.4600   -46.7630 oh         1 AQH      -0.681000
      5 C6          -6.7110   -72.1940   -48.4380 c3         1 AQH       0.172300
      6 O6          -5.9970   -70.9610   -48.6450 oh         1 AQH      -0.675000
      7 C5          -7.3910   -72.7230   -49.7580 c6         1 AQH       0.176300
      8 O5          -8.1750   -71.6300   -50.3050 os         1 AQH      -0.440000
      9 C4          -8.3230   -73.9710   -49.5550 c6         1 AQH       0.095300
     10 O4          -7.6100   -75.1410   -49.1180 oh         1 AQH      -0.749000
     11 C3          -9.0640   -74.3170   -50.8860 c6         1 AQH       0.118300
     12 O3          -9.9900   -75.4020   -50.6640 oh         1 AQH      -0.670000
     13 C2          -9.8020   -73.0760   -51.4640 c6         1 AQH       0.137300
     14 O2         -10.9320   -75.6780   -57.1930 oh         1 AQH      -0.700000
     15 C1          -8.7510   -71.9070   -51.5970 c6         1 AQH       0.466300
     16 C1D        -12.3170   -75.8850   -55.0960 c5         1 AQH       0.310300
     17 N1         -12.8670   -81.0720   -55.7860 nb         1 AQH      -0.316000
     18 O1A        -12.7130   -68.9610   -54.1610 o          1 AQH      -0.854000
     19 O3A         -9.4940   -69.2940   -54.1820 o          1 AQH      -0.839000
     20 C12        -11.7620   -80.3160   -55.5830 ca         1 AQH       0.157900
     21 C2D        -11.9330   -75.0670   -56.3680 c5         1 AQH       0.131300
     22 O2A        -11.7680   -70.5130   -55.8550 o          1 AQH      -0.854000
     23 O1B         -9.2000   -71.7610   -54.3910 o          1 AQH      -0.839000
     24 C3D        -11.3570   -73.8030   -55.6760 c5         1 AQH       0.115300
     25 N3         -11.7200   -78.9740   -55.4090 nb         1 AQH      -0.198000
     26 O2B        -11.3210   -70.9100   -53.3280 os         1 AQH      -0.724800
     27 O3B         -9.2790   -70.6770   -52.0960 os         1 AQH      -0.549400
     28 O3D        -10.0290   -74.0600   -55.1740 oh         1 AQH      -0.727000
     29 C11        -12.9090   -78.3380   -55.4440 ca         1 AQH       0.138500
     30 C4D        -12.4170   -73.5970   -54.5320 c5         1 AQH       0.123300
     31 O4D        -12.9510   -74.9180   -54.2330 os         1 AQH      -0.468000
     32 C10        -14.0890   -79.0100   -55.6430 ca         1 AQH      -0.093600
     33 C5D        -13.5980   -72.6410   -54.8950 c3         1 AQH       0.213600
     34 O5D        -13.4960   -71.3680   -54.2190 os         1 AQH      -0.614400
     35 C9         -14.0330   -80.4100   -55.8180 ca         1 AQH       0.436900
     36 N6         -15.1430   -81.1700   -56.0180 nv         1 AQH      -1.082900
     37 N7         -15.1930   -78.1630   -55.6330 nc         1 AQH      -0.582100
     38 C8         -14.6190   -76.9610   -55.4220 cd         1 AQH       0.440700
     39 N9         -13.2190   -77.0110   -55.3010 na         1 AQH      -0.280300
     40 O          -10.9320   -72.7650   -50.6090 oh         1 AQH      -0.677000
     41 H3          -4.3810   -73.1290   -46.3000 ho         1 AQH       0.433000
     42 H4          -7.5180   -72.0240   -47.7110 h1         1 AQH       0.056700
     43 H5          -5.3130   -70.9960   -47.9300 ho         1 AQH       0.493000
     44 H6          -6.5950   -72.9760   -50.4740 h1         1 AQH       0.055700
     45 H7          -9.0790   -73.7010   -48.8020 h1         1 AQH       0.055700
     46 H8          -8.2310   -75.8900   -49.2880 ho         1 AQH       0.488000
     47 H9          -8.3050   -74.6260   -51.6220 h1         1 AQH       0.043700
     48 H10        -10.1330   -75.8480   -51.5280 ho         1 AQH       0.436000
     49 H11        -10.1470   -73.3450   -52.4710 h1         1 AQH       0.093700
     50 H12        -10.0840   -75.3940   -56.7670 ho         1 AQH       0.508000
     51 H13         -7.9420   -72.2360   -52.2670 h2         1 AQH       0.039700
     52 H14        -11.4140   -76.2780   -54.6110 h2         1 AQH       0.110700
     53 H17        -10.8080   -80.8410   -55.5560 h5         1 AQH       0.035100
     54 H18        -12.8290   -74.8250   -56.9570 h1         1 AQH       0.056700
     55 H19        -11.3440   -72.9540   -56.3740 h1         1 AQH       0.100700
     56 H20         -9.6480   -73.1590   -54.9080 ho         1 AQH       0.514000
     57 H21        -11.9490   -73.2300   -53.6140 h1         1 AQH       0.085700
     58 H22        -13.6370   -72.4990   -55.9830 h1         1 AQH       0.032700
     59 H23        -14.5390   -73.1250   -54.6040 h1         1 AQH       0.032700
     60 H24        -15.0740   -82.1690   -55.8410 hn         1 AQH       0.500000
     61 H25        -16.0420   -80.7330   -55.8290 hn         1 AQH       0.500000
     62 H26        -15.1490   -76.0180   -55.3490 h5         1 AQH       0.088800
     63 H27        -11.2270   -73.6380   -50.2610 ho         1 AQH       0.479000
     64 H1          -6.2330   -73.9990   -47.3110 h1         1 AQH       0.028200
     65 H2          -5.0210   -73.5720   -48.5380 h1         1 AQH       0.028200
@<TRIPOS>BOND
     1     1    18 1   
     2     1    22 1   
     3     1    26 1   
     4     1    34 1   
     5     2    19 1   
     6     2    23 1   
     7     2    26 1   
     8     2    27 1   
     9     3     4 1   
    10     3     5 1   
    11     3    64 1   
    12     3    65 1   
    13     4    41 1   
    14     5     6 1   
    15     5     7 1   
    16     5    42 1   
    17     6    43 1   
    18     7     8 1   
    19     7     9 1   
    20     7    44 1   
    21     8    15 1   
    22     9    10 1   
    23     9    11 1   
    24     9    45 1   
    25    10    46 1   
    26    11    12 1   
    27    11    13 1   
    28    11    47 1   
    29    12    48 1   
    30    13    15 1   
    31    13    40 1   
    32    13    49 1   
    33    14    21 1   
    34    14    50 1   
    35    15    27 1   
    36    15    51 1   
    37    16    21 1   
    38    16    31 1   
    39    16    39 1   
    40    16    52 1   
    41    17    20 ar  
    42    17    35 ar  
    43    20    25 ar  
    44    20    53 1   
    45    21    24 1   
    46    21    54 1   
    47    24    28 1   
    48    24    30 1   
    49    24    55 1   
    50    25    29 ar  
    51    28    56 1   
    52    29    32 ar  
    53    29    39 1   
    54    30    31 1   
    55    30    33 1   
    56    30    57 1   
    57    32    35 ar  
    58    32    37 1   
    59    33    34 1   
    60    33    58 1   
    61    33    59 1   
    62    35    36 1   
    63    36    60 1   
    64    36    61 1   
    65    37    38 2   
    66    38    39 1   
    67    38    62 1   
    68    40    63 1   
@<TRIPOS>SUBSTRUCTURE
     1 AQH         1 TEMP              0 ****  ****    0 ROOT
