@<TRIPOS>MOLECULE
AQH
   65    68     1     0     0
SMALL
abcg2


@<TRIPOS>ATOM
      1 PA         -12.0410   -70.9200   -54.1780 p5         1 AQH       1.479800
      2 PB         -10.0880   -69.2220   -52.6380 p5         1 AQH       1.485800
      3 C7          -5.6970   -72.9720   -48.7920 c3         1 AQH       0.119600
      4 O7          -4.6010   -72.2910   -48.1670 oh         1 AQH      -0.681000
      5 C6          -6.6300   -71.8840   -49.3050 c3         1 AQH       0.172300
      6 O6          -5.8850   -70.9750   -50.1170 oh         1 AQH      -0.675000
      7 C5          -7.8040   -72.3670   -50.1470 c6         1 AQH       0.176300
      8 O5          -8.6220   -71.2070   -50.3310 os         1 AQH      -0.440000
      9 C4          -8.6500   -73.4980   -49.5380 c6         1 AQH       0.095300
     10 O4          -7.9490   -74.7470   -49.5490 oh         1 AQH      -0.749000
     11 C3          -9.9000   -73.7180   -50.3850 c6         1 AQH       0.118300
     12 O3         -10.7740   -74.6650   -49.7820 oh         1 AQH      -0.670000
     13 C2         -10.6830   -72.4360   -50.6070 c6         1 AQH       0.137300
     14 O2          -9.9800   -76.7620   -56.6090 oh         1 AQH      -0.700000
     15 C1          -9.7240   -71.4120   -51.1970 c6         1 AQH       0.466300
     16 C1D        -11.7810   -76.7930   -55.0260 c5         1 AQH       0.310300
     17 N1         -14.2220   -81.0670   -56.5120 nb         1 AQH      -0.316000
     18 O1A        -13.0910   -70.6510   -53.1520 o          1 AQH      -0.854000
     19 O3A        -10.9220   -68.0100   -52.4140 o          1 AQH      -0.839000
     20 C12        -13.0940   -80.8880   -55.8160 ca         1 AQH       0.157900
     21 C2D        -10.8500   -75.9310   -55.8770 c5         1 AQH       0.131300
     22 O2A        -12.3610   -70.7500   -55.6270 o          1 AQH      -0.854000
     23 O1B         -8.6230   -69.1170   -52.8930 o          1 AQH      -0.839000
     24 C3D        -10.2160   -75.0170   -54.8220 c5         1 AQH       0.115300
     25 N3         -12.5110   -79.7410   -55.4690 nb         1 AQH      -0.198000
     26 O2B        -10.6760   -70.0980   -53.8800 os         1 AQH      -0.724800
     27 O3B        -10.3750   -70.1840   -51.3450 os         1 AQH      -0.549400
     28 O3D         -9.1610   -75.7260   -54.1850 oh         1 AQH      -0.727000
     29 C11        -13.2000   -78.6800   -55.9030 ca         1 AQH       0.138500
     30 C4D        -11.4010   -74.7790   -53.8790 c5         1 AQH       0.123300
     31 O4D        -12.2510   -75.9440   -53.9930 os         1 AQH      -0.468000
     32 C10        -14.3870   -78.7130   -56.6320 ca         1 AQH      -0.093600
     33 C5D        -12.2230   -73.5420   -54.2040 c3         1 AQH       0.213600
     34 O5D        -11.4070   -72.4070   -53.9350 os         1 AQH      -0.614400
     35 C9         -14.9040   -79.9860   -56.9400 ca         1 AQH       0.436900
     36 N6         -16.0360   -80.1630   -57.6380 nv         1 AQH      -1.082900
     37 N7         -14.8230   -77.4280   -56.9070 nc         1 AQH      -0.582100
     38 C8         -13.9220   -76.6480   -56.3660 cd         1 AQH       0.440700
     39 N9         -12.9090   -77.3440   -55.7410 na         1 AQH      -0.280300
     40 O          -11.2240   -71.9340   -49.3910 oh         1 AQH      -0.677000
     41 H3          -3.8410   -72.8850   -48.1450 ho         1 AQH       0.433000
     42 H4          -7.0420   -71.3480   -48.4390 h1         1 AQH       0.056700
     43 H5          -5.0340   -70.8570   -49.6690 ho         1 AQH       0.493000
     44 H6          -7.4210   -72.7070   -51.1190 h1         1 AQH       0.055700
     45 H7          -8.9400   -73.2340   -48.5190 h1         1 AQH       0.055700
     46 H8          -7.6890   -74.9770   -48.6510 ho         1 AQH       0.488000
     47 H9          -9.5660   -74.0880   -51.3620 h1         1 AQH       0.043700
     48 H10        -10.2400   -75.4310   -49.5300 ho         1 AQH       0.436000
     49 H11        -11.4790   -72.6180   -51.3340 h1         1 AQH       0.093700
     50 H12         -9.5390   -76.2320   -57.2850 ho         1 AQH       0.508000
     51 H13         -9.3650   -71.7860   -52.1630 h2         1 AQH       0.039700
     52 H14        -11.2330   -77.6450   -54.6190 h2         1 AQH       0.110700
     53 H17        -12.5920   -81.7950   -55.4970 h5         1 AQH       0.035100
     54 H18        -11.4490   -75.3080   -56.5460 h1         1 AQH       0.056700
     55 H19         -9.8540   -74.0810   -55.2520 h1         1 AQH       0.100700
     56 H20         -8.7650   -75.1450   -53.5230 ho         1 AQH       0.514000
     57 H21        -11.0520   -74.7190   -52.8490 h1         1 AQH       0.085700
     58 H22        -12.5350   -73.5490   -55.2530 h1         1 AQH       0.032700
     59 H23        -13.1180   -73.5340   -53.5770 h1         1 AQH       0.032700
     60 H24        -16.3740   -81.0930   -57.8200 hn         1 AQH       0.500000
     61 H25        -16.5740   -79.3740   -57.9550 hn         1 AQH       0.500000
     62 H26        -13.9390   -75.5690   -56.3730 h5         1 AQH       0.088800
     63 H27        -11.6550   -72.6780   -48.9480 ho         1 AQH       0.479000
     64 H1          -6.2040   -73.6020   -48.0600 h1         1 AQH       0.028200
     65 H2          -5.3430   -73.5930   -49.6180 h1         1 AQH       0.028200
@<TRIPOS>BOND
     1     1    18 1   
     2     1    22 1   
     3     1    26 1   
     4     1    34 1   
     5     2    19 1   
     6     2    23 1   
     7     2    26 1   
     8     2    27 1   
     9     3     4 1   
    10     3     5 1   
    11     3    64 1   
    12     3    65 1   
    13     4    41 1   
    14     5     6 1   
    15     5     7 1   
    16     5    42 1   
    17     6    43 1   
    18     7     8 1   
    19     7     9 1   
    20     7    44 1   
    21     8    15 1   
    22     9    10 1   
    23     9    11 1   
    24     9    45 1   
    25    10    46 1   
    26    11    12 1   
    27    11    13 1   
    28    11    47 1   
    29    12    48 1   
    30    13    15 1   
    31    13    40 1   
    32    13    49 1   
    33    14    21 1   
    34    14    50 1   
    35    15    27 1   
    36    15    51 1   
    37    16    21 1   
    38    16    31 1   
    39    16    39 1   
    40    16    52 1   
    41    17    20 ar  
    42    17    35 ar  
    43    20    25 ar  
    44    20    53 1   
    45    21    24 1   
    46    21    54 1   
    47    24    28 1   
    48    24    30 1   
    49    24    55 1   
    50    25    29 ar  
    51    28    56 1   
    52    29    32 ar  
    53    29    39 1   
    54    30    31 1   
    55    30    33 1   
    56    30    57 1   
    57    32    35 ar  
    58    32    37 1   
    59    33    34 1   
    60    33    58 1   
    61    33    59 1   
    62    35    36 1   
    63    36    60 1   
    64    36    61 1   
    65    37    38 2   
    66    38    39 1   
    67    38    62 1   
    68    40    63 1   
@<TRIPOS>SUBSTRUCTURE
     1 AQH         1 TEMP              0 ****  ****    0 ROOT
