@<TRIPOS>MOLECULE
AQI
   29    30     1     0     0
SMALL
abcg2


@<TRIPOS>ATOM
      1 C13          1.0350    20.9550   -28.7290 ca         1 AQI       0.077100
      2 C15          0.1490    21.9880   -29.1220 ca         1 AQI       0.238100
      3 C17         -0.5080    22.7000   -28.1090 ca         1 AQI      -0.290200
      4 C18         -0.3130    22.4100   -26.7580 ca         1 AQI      -0.003000
      5 O21         -1.5840    24.0340   -29.6240 o          1 AQI      -0.404500
      6 C02         -0.5570    22.3190   -21.7130 ca         1 AQI       0.167100
      7 C03         -1.9190    22.0900   -21.8930 ca         1 AQI      -0.237000
      8 C04         -2.3450    21.5570   -23.0930 ca         1 AQI       0.212000
      9 C06         -1.4870    21.2520   -24.1290 ca         1 AQI      -0.166000
     10 C07         -0.1270    21.4830   -23.9280 ca         1 AQI      -0.107600
     11 C08          0.3420    21.9960   -22.7270 ca         1 AQI      -0.118000
     12 C11          0.5550    21.4040   -26.3990 ca         1 AQI      -0.183600
     13 C12          1.2370    20.6890   -27.3980 ca         1 AQI      -0.092000
     14 N19         -1.4150    23.7690   -28.4430 no         1 AQI       0.707200
     15 O01         -0.0570    22.8430   -20.5850 oh         1 AQI      -0.524100
     16 O14          1.6330    20.3010   -29.7340 oh         1 AQI      -0.504100
     17 O16          0.0240    22.1850   -30.4190 oh         1 AQI      -0.489100
     18 O20         -1.9720    24.3600   -27.5560 o          1 AQI      -0.404500
     19 H1          -0.8270    22.9950   -26.0100 ha         1 AQI       0.161000
     20 H2          -2.6370    22.3260   -21.1160 ha         1 AQI       0.137000
     21 H3          -1.8680    20.8290   -25.0490 ha         1 AQI       0.141000
     22 H4           1.4010    22.1680   -22.5780 ha         1 AQI       0.149000
     23 H5           1.9260    19.9020   -27.1140 ha         1 AQI       0.144000
     24 H6          -0.7560    23.0320   -19.9470 ho         1 AQI       0.474000
     25 H7           2.2140    19.6120   -29.3900 ho         1 AQI       0.473000
     26 H8          -0.6000    22.9210   -30.5680 ho         1 AQI       0.519000
     27 C09          0.8670    21.1140   -24.9790 c          1 AQI       0.599300
     28 F05         -3.6550    21.3300   -23.2550 f          1 AQI      -0.170000
     29 O10          1.9180    20.5940   -24.6700 o          1 AQI      -0.504100
@<TRIPOS>BOND
     1     1     2 ar  
     2     1    13 ar  
     3     1    16 1   
     4     2     3 ar  
     5     2    17 1   
     6     3     4 ar  
     7     3    14 1   
     8     4    12 ar  
     9     4    19 1   
    10     5    14 1   
    11     6     7 ar  
    12     6    11 ar  
    13     6    15 1   
    14     7     8 ar  
    15     7    20 1   
    16     8     9 ar  
    17     8    28 1   
    18     9    10 ar  
    19     9    21 1   
    20    10    11 ar  
    21    10    27 1   
    22    11    22 1   
    23    12    13 ar  
    24    12    27 1   
    25    13    23 1   
    26    14    18 1   
    27    15    24 1   
    28    16    25 1   
    29    17    26 1   
    30    27    29 2   
@<TRIPOS>SUBSTRUCTURE
     1 AQI         1 TEMP              0 ****  ****    0 ROOT
