@<TRIPOS>MOLECULE
AQI
   29    30     1     0     0
SMALL
No Charge or Current Charge


@<TRIPOS>ATOM
      1 C13          0.9700    20.8710   -28.7690 ca         1 AQI       0.077100
      2 C15          0.0750    21.9000   -29.1620 ca         1 AQI       0.238100
      3 C17         -0.5130    22.7430   -28.1790 ca         1 AQI      -0.290200
      4 C18         -0.1910    22.5290   -26.8150 ca         1 AQI      -0.003000
      5 O21         -1.6820    24.0890   -29.7230 o          1 AQI      -0.404500
      6 C02         -0.5800    22.2180   -21.6170 ca         1 AQI       0.167100
      7 C03         -1.9440    22.0440   -21.8870 ca         1 AQI      -0.237000
      8 C04         -2.3460    21.6150   -23.1590 ca         1 AQI       0.212000
      9 C06         -1.3970    21.3660   -24.1630 ca         1 AQI      -0.166000
     10 C07         -0.0180    21.5550   -23.9080 ca         1 AQI      -0.107600
     11 C08          0.3760    21.9710   -22.6150 ca         1 AQI      -0.118000
     12 C11          0.6830    21.4940   -26.4230 ca         1 AQI      -0.183600
     13 C12          1.2710    20.6790   -27.4100 ca         1 AQI      -0.092000
     14 N19         -1.4600    23.8550   -28.5280 no         1 AQI       0.707200
     15 O01         -0.1760    22.6270   -20.3820 oh         1 AQI      -0.524100
     16 O14          1.5550    20.0500   -29.7040 oh         1 AQI      -0.504100
     17 O16         -0.1980    22.0570   -30.4950 oh         1 AQI      -0.489100
     18 O20         -1.9830    24.4890   -27.6050 o          1 AQI      -0.404500
     19 H1          -0.6100    23.1800   -26.0470 ha         1 AQI       0.161000
     20 H2          -2.6940    22.2300   -21.1240 ha         1 AQI       0.137000
     21 H3          -1.7410    21.0130   -25.1320 ha         1 AQI       0.141000
     22 H4           1.4300    22.1110   -22.3840 ha         1 AQI       0.149000
     23 H5           1.9590    19.8880   -27.1140 ha         1 AQI       0.144000
     24 H6          -0.9710    22.7480   -19.8200 ho         1 AQI       0.474000
     25 H7           2.1410    19.4070   -29.2510 ho         1 AQI       0.473000
     26 H8          -0.8030    22.8290   -30.5840 ho         1 AQI       0.519000
     27 C09          1.0300    21.2800   -24.9670 c          1 AQI       0.599300
     28 F05         -3.6580    21.4330   -23.4190 f          1 AQI      -0.170000
     29 O10          2.1480    20.8880   -24.6490 o          1 AQI      -0.504100
@<TRIPOS>BOND
     1     1     2 ar  
     2     1    13 ar  
     3     1    16 1   
     4     2     3 ar  
     5     2    17 1   
     6     3     4 ar  
     7     3    14 1   
     8     4    12 ar  
     9     4    19 1   
    10     5    14 1   
    11     6     7 ar  
    12     6    11 ar  
    13     6    15 1   
    14     7     8 ar  
    15     7    20 1   
    16     8     9 ar  
    17     8    28 1   
    18     9    10 ar  
    19     9    21 1   
    20    10    11 ar  
    21    10    27 1   
    22    11    22 1   
    23    12    13 ar  
    24    12    27 1   
    25    13    23 1   
    26    14    18 1   
    27    15    24 1   
    28    16    25 1   
    29    17    26 1   
    30    27    29 2   
@<TRIPOS>SUBSTRUCTURE
     1 AQI         1 TEMP              0 ****  ****    0 ROOT
