@<TRIPOS>MOLECULE
AQJ
   84    85     1     0     0
SMALL
No Charge or Current Charge


@<TRIPOS>ATOM
      1 CBG          5.4780     0.7020    -0.4540 c3         1 AQJ       0.188300
      2 CBF         -3.4410     0.3100     0.1570 c6         1 AQJ       0.359300
      3 CBE         -4.5610     0.5610    -0.9020 c6         1 AQJ       0.157300
      4 CBD         -0.2510     1.9440     0.4190 c3         1 AQJ      -0.162700
      5 CBC          2.3180     2.4580     0.5790 c3         1 AQJ      -0.226700
      6 CBB         -0.2500    -0.7170     0.1050 c3         1 AQJ      -0.073700
      7 CBA          1.0720    -2.8080     1.2370 c3         1 AQJ      -0.149700
      8 CAA          6.7810     2.9250    -0.7640 c3         1 AQJ      -0.090100
      9 CAC          0.3650    -3.7550     0.2340 c3         1 AQJ      -0.080100
     10 CAD          0.5690    -0.5240    -1.1980 c3         1 AQJ      -0.089100
     11 CAE          2.7470     3.8500     1.1140 c3         1 AQJ      -0.080100
     12 CAF         -1.1410     3.1560     0.8140 c3         1 AQJ      -0.091100
     13 CAR          0.5470    -1.3300     1.3060 c3         1 AQJ      -0.067400
     14 CAW          2.6140    -2.8880     1.1590 c          1 AQJ       0.571300
     15 OAJ          3.2650    -3.3440     2.0900 o          1 AQJ      -0.521100
     16 CAO          3.2920    -2.2450    -0.0020 ce         1 AQJ      -0.290200
     17 CAP          4.4680    -1.5740     0.1080 c2         1 AQJ      -0.184200
     18 CBK          5.2160    -0.7780    -0.9500 c3         1 AQJ       0.211200
     19 CAI          4.5170    -0.8220    -2.3350 c3         1 AQJ      -0.118100
     20 OAN          6.4660    -1.4510    -1.1050 oh         1 AQJ      -0.656000
     21 CAQ          6.4490     1.5310    -1.3420 c3         1 AQJ      -0.088400
     22 OAT          4.2380     1.4550    -0.4180 os         1 AQJ      -0.463100
     23 CAX          3.4650     1.4600     0.7150 c          1 AQJ       0.610100
     24 OAK          3.7370     0.8560     1.7410 o          1 AQJ      -0.455000
     25 CAY          1.0360     1.9720     1.2710 c          1 AQJ       0.588100
     26 OAL          1.0050     1.7230     2.4690 o          1 AQJ      -0.492100
     27 CBH         -1.0230     0.5910     0.5110 c3         1 AQJ       0.194300
     28 OAV         -2.1570     0.7050    -0.3710 os         1 AQJ      -0.465000
     29 OAM         -4.5660     1.9460    -1.3350 oh         1 AQJ      -0.695000
     30 OAU         -3.4180    -1.0820     0.5150 os         1 AQJ      -0.489000
     31 CAZ         -4.6160    -1.5220     1.1740 c6         1 AQJ       0.186300
     32 CAS         -5.8230    -1.3640     0.2170 c6         1 AQJ      -0.149400
     33 CBI         -5.9390     0.1060    -0.2940 c6         1 AQJ       0.193500
     34 NBJ         -7.1130     0.3050    -1.2170 n3         1 AQJ      -0.710600
     35 CAH         -7.0480    -0.4290    -2.5060 c3         1 AQJ       0.159100
     36 H1           5.9330     0.6510     0.5450 h1         1 AQJ       0.087700
     37 H2          -3.6520     0.9120     1.0540 h2         1 AQJ       0.028700
     38 H3          -4.3330    -0.0860    -1.7610 h1         1 AQJ       0.051700
     39 H4           0.0230     2.1060    -0.6280 hc         1 AQJ       0.071700
     40 H5           2.1420     2.6020    -0.4920 hc         1 AQJ       0.088700
     41 H6          -1.0250    -1.4490    -0.1420 hc         1 AQJ       0.074700
     42 H7           0.8360    -3.2300     2.2230 hc         1 AQJ       0.067700
     43 H8           5.8820     3.5480    -0.6960 hc         1 AQJ       0.037033
     44 H9           7.2180     2.8360     0.2380 hc         1 AQJ       0.037033
     45 H10          7.5030     3.4410    -1.4070 hc         1 AQJ       0.037033
     46 H14          0.5890    -3.4980    -0.8060 hc         1 AQJ       0.038367
     47 H15          0.6970    -4.7880     0.3950 hc         1 AQJ       0.038367
     48 H16         -0.7220    -3.7320     0.3750 hc         1 AQJ       0.038367
     49 H17          1.5060     0.0080    -1.0030 hc         1 AQJ       0.036033
     50 H18          0.8000    -1.4800    -1.6740 hc         1 AQJ       0.036033
     51 H19         -0.0040     0.0530    -1.9350 hc         1 AQJ       0.036033
     52 H20          3.6380     4.2120     0.5850 hc         1 AQJ       0.051700
     53 H21          1.9470     4.5870     0.9710 hc         1 AQJ       0.051700
     54 H22          2.9830     3.8040     2.1850 hc         1 AQJ       0.051700
     55 H23         -0.5730     4.0920     0.7470 hc         1 AQJ       0.047033
     56 H24         -2.0070     3.2490     0.1490 hc         1 AQJ       0.047033
     57 H25         -1.5080     3.0540     1.8420 hc         1 AQJ       0.047033
     58 H26         -8.4700     0.7680     0.3640 h1         1 AQJ       0.029867
     59 H27         -9.2340     0.5110    -1.2170 h1         1 AQJ       0.029867
     60 H28         -8.6360    -0.8800    -0.2900 h1         1 AQJ       0.029867
     61 H29          1.3950    -0.6820     1.5460 hc         1 AQJ       0.053200
     62 H30         -0.1080    -1.2760     2.1850 hc         1 AQJ       0.053200
     63 H31          2.7210    -2.2300    -0.9220 ha         1 AQJ       0.186000
     64 H32          4.9800    -1.5600     1.0740 ha         1 AQJ       0.205000
     65 H33          3.5490    -0.3110    -2.3050 hc         1 AQJ       0.047700
     66 H34          5.1290    -0.3390    -3.1050 hc         1 AQJ       0.047700
     67 H35          4.3460    -1.8570    -2.6570 hc         1 AQJ       0.047700
     68 H36          6.2530    -2.3910    -1.2850 ho         1 AQJ       0.453000
     69 H37          7.3880     0.9810    -1.4680 hc         1 AQJ       0.056700
     70 H38          6.0200     1.6600    -2.3420 hc         1 AQJ       0.056700
     71 H39         -1.3720     0.4790     1.5480 h1         1 AQJ       0.052700
     72 H40         -3.6230     2.1630    -1.5210 ho         1 AQJ       0.509000
     73 H41         -4.7720    -0.9140     2.0780 h1         1 AQJ       0.032700
     74 H42         -5.7050    -2.0550    -0.6270 hc         1 AQJ       0.057700
     75 H43         -6.7380    -1.6620     0.7450 hc         1 AQJ       0.057700
     76 H44         -6.0990     0.7370     0.5940 h1         1 AQJ       0.064700
     77 H46         -7.8810    -0.1300    -3.1570 h1         1 AQJ       0.029867
     78 H47         -6.1170    -0.2120    -3.0440 h1         1 AQJ       0.029867
     79 H48         -7.1160    -1.5130    -2.3500 h1         1 AQJ       0.029867
     80 CAB         -4.3820    -2.9900     1.5990 c3         1 AQJ      -0.088100
     81 H11         -3.5180    -3.0710     2.2700 hc         1 AQJ       0.046033
     82 CAG         -8.4310     0.1660    -0.5530 c3         1 AQJ       0.159100
     83 H12         -5.2540    -3.3880     2.1320 hc         1 AQJ       0.046033
     84 H13         -4.1960    -3.6330     0.7310 hc         1 AQJ       0.046033
@<TRIPOS>BOND
     1     1    18 1   
     2     1    21 1   
     3     1    22 1   
     4     1    36 1   
     5     2     3 1   
     6     2    28 1   
     7     2    30 1   
     8     2    37 1   
     9     3    29 1   
    10     3    33 1   
    11     3    38 1   
    12     4    12 1   
    13     4    25 1   
    14     4    27 1   
    15     4    39 1   
    16     5    11 1   
    17     5    23 1   
    18     5    25 1   
    19     5    40 1   
    20     6    10 1   
    21     6    13 1   
    22     6    27 1   
    23     6    41 1   
    24     7     9 1   
    25     7    13 1   
    26     7    14 1   
    27     7    42 1   
    28     8    21 1   
    29     8    43 1   
    30     8    44 1   
    31     8    45 1   
    32     9    46 1   
    33     9    47 1   
    34     9    48 1   
    35    10    49 1   
    36    10    50 1   
    37    10    51 1   
    38    11    52 1   
    39    11    53 1   
    40    11    54 1   
    41    12    55 1   
    42    12    56 1   
    43    12    57 1   
    44    13    61 1   
    45    13    62 1   
    46    14    15 2   
    47    14    16 1   
    48    16    17 2   
    49    16    63 1   
    50    17    18 1   
    51    17    64 1   
    52    18    19 1   
    53    18    20 1   
    54    19    65 1   
    55    19    66 1   
    56    19    67 1   
    57    20    68 1   
    58    21    69 1   
    59    21    70 1   
    60    22    23 1   
    61    23    24 2   
    62    25    26 2   
    63    27    28 1   
    64    27    71 1   
    65    29    72 1   
    66    30    31 1   
    67    31    32 1   
    68    31    73 1   
    69    31    80 1   
    70    32    33 1   
    71    32    74 1   
    72    32    75 1   
    73    33    34 1   
    74    33    76 1   
    75    34    35 1   
    76    34    82 1   
    77    35    77 1   
    78    35    78 1   
    79    35    79 1   
    80    58    82 1   
    81    59    82 1   
    82    60    82 1   
    83    80    81 1   
    84    80    83 1   
    85    80    84 1   
@<TRIPOS>SUBSTRUCTURE
     1 AQJ         1 TEMP              0 ****  ****    0 ROOT
