@<TRIPOS>MOLECULE
AQJ
   84    85     1     0     0
SMALL
bcc


@<TRIPOS>ATOM
      1 CBG          5.3970     0.6580    -0.3450 c3         1 AQJ       0.165100
      2 CBF         -3.3640     0.1100     0.2010 c6         1 AQJ       0.312900
      3 CBE         -4.5170     0.7060    -0.6150 c6         1 AQJ       0.134100
      4 CBD         -0.3030     1.8020     0.3720 c3         1 AQJ      -0.162700
      5 CBC          2.1790     2.4720     0.0390 c3         1 AQJ      -0.226700
      6 CBB         -0.2200    -0.8330     0.0640 c3         1 AQJ      -0.073700
      7 CBA          1.0280    -2.8900     1.2690 c3         1 AQJ      -0.149700
      8 CAA          6.5250     2.8580    -0.9580 c3         1 AQJ      -0.090100
      9 CAC          0.6830    -3.7890     0.0860 c3         1 AQJ      -0.080100
     10 CAD          0.8310    -0.5420    -1.0020 c3         1 AQJ      -0.089100
     11 CAE          2.0860     4.0000     0.1610 c3         1 AQJ      -0.080100
     12 CAF         -1.1180     2.8650     1.1250 c3         1 AQJ      -0.091100
     13 CAR          0.2440    -1.5520     1.3420 c3         1 AQJ      -0.067400
     14 CAW          2.5100    -2.6310     1.4610 c          1 AQJ       0.571300
     15 OAJ          3.0130    -2.7560     2.5610 o          1 AQJ      -0.521100
     16 CAO          3.3100    -2.1480     0.3120 ce         1 AQJ      -0.240200
     17 CAP          4.4270    -1.4480     0.4990 c2         1 AQJ      -0.134200
     18 CBK          5.3210    -0.8690    -0.5690 c3         1 AQJ       0.188000
     19 CAI          4.8880    -1.2380    -1.9810 c3         1 AQJ      -0.118100
     20 OAN          6.6400    -1.3180    -0.3090 oh         1 AQJ      -0.593800
     21 CAQ          6.2950     1.3970    -1.3260 c3         1 AQJ      -0.088400
     22 OAT          4.0580     1.1620    -0.4670 os         1 AQJ      -0.439900
     23 CAX          3.5630     2.0040     0.4350 c          1 AQJ       0.659100
     24 OAK          4.1400     2.3640     1.4260 o          1 AQJ      -0.504000
     25 CAY          1.1120     1.8290     0.9220 c          1 AQJ       0.588100
     26 OAL          1.3710     1.4420     2.0360 o          1 AQJ      -0.492100
     27 CBH         -1.0160     0.4330     0.4820 c3         1 AQJ       0.171100
     28 OAV         -2.1760     0.5750    -0.3320 os         1 AQJ      -0.418600
     29 OAM         -4.5380     2.1060    -0.5140 oh         1 AQJ      -0.572800
     30 OAU         -3.3680    -1.2870     0.1360 os         1 AQJ      -0.442600
     31 CAZ         -4.5360    -1.8700     0.6910 c6         1 AQJ       0.163100
     32 CAS         -5.7620    -1.3830    -0.0680 c6         1 AQJ      -0.149400
     33 CBI         -5.8330     0.1490    -0.0730 c6         1 AQJ       0.193500
     34 NBJ         -6.9860     0.7210    -0.7490 n3         1 AQJ      -0.710600
     35 CAH         -7.1540     0.3310    -2.1320 c3         1 AQJ       0.159100
     36 H1           5.7590     0.8260     0.6740 h1         1 AQJ       0.087700
     37 H2          -3.4670     0.4320     1.2560 h2         1 AQJ       0.028700
     38 H3          -4.3790     0.3820    -1.6580 h1         1 AQJ       0.051700
     39 H4          -0.2680     2.0750    -0.6870 hc         1 AQJ       0.071700
     40 H5           1.9870     2.2010    -1.0000 hc         1 AQJ       0.088700
     41 H6          -0.9550    -1.4890    -0.4050 hc         1 AQJ       0.074700
     42 H7           0.7360    -3.4330     2.1710 hc         1 AQJ       0.067700
     43 H8           5.6150     3.4540    -1.0330 hc         1 AQJ       0.037033
     44 H9           6.9110     2.9590     0.0570 hc         1 AQJ       0.037033
     45 H10          7.2540     3.3040    -1.6350 hc         1 AQJ       0.037033
     46 H14          1.0130    -3.3990    -0.8750 hc         1 AQJ       0.038367
     47 H15          1.1350    -4.7740     0.2100 hc         1 AQJ       0.038367
     48 H16         -0.3970    -3.9330     0.0280 hc         1 AQJ       0.038367
     49 H17          1.7580    -0.1400    -0.6000 hc         1 AQJ       0.036033
     50 H18          1.0990    -1.4460    -1.5460 hc         1 AQJ       0.036033
     51 H19          0.4490     0.1570    -1.7490 hc         1 AQJ       0.036033
     52 H20          2.8520     4.4730    -0.4530 hc         1 AQJ       0.051700
     53 H21          1.1220     4.3570    -0.1970 hc         1 AQJ       0.051700
     54 H22          2.2170     4.3300     1.1900 hc         1 AQJ       0.051700
     55 H23         -0.7330     3.8700     0.9570 hc         1 AQJ       0.047033
     56 H24         -2.1540     2.8590     0.7900 hc         1 AQJ       0.047033
     57 H25         -1.1090     2.6740     2.1980 hc         1 AQJ       0.047033
     58 H26         -8.0890     0.9270     1.0160 h1         1 AQJ       0.029867
     59 H27         -9.0090     1.1330    -0.4720 h1         1 AQJ       0.029867
     60 H28         -8.5670    -0.4870     0.0640 h1         1 AQJ       0.029867
     61 H29          0.7980    -0.8640     1.9820 hc         1 AQJ       0.053200
     62 H30         -0.6730    -1.7770     1.8940 hc         1 AQJ       0.053200
     63 H31          2.9330    -2.3430    -0.6830 ha         1 AQJ       0.136000
     64 H32          4.7580    -1.2540     1.5170 ha         1 AQJ       0.155000
     65 H33          3.9130    -0.8220    -2.2350 hc         1 AQJ       0.047700
     66 H34          5.6100    -0.8740    -2.7110 hc         1 AQJ       0.047700
     67 H35          4.8240    -2.3210    -2.0940 hc         1 AQJ       0.047700
     68 H36          6.6810    -2.2650    -0.4840 ho         1 AQJ       0.414000
     69 H37          7.2550     0.8810    -1.3560 hc         1 AQJ       0.056700
     70 H38          5.8780     1.3350    -2.3340 hc         1 AQJ       0.056700
     71 H39         -1.3340     0.3070     1.5260 h1         1 AQJ       0.052700
     72 H40         -3.7520     2.4510    -0.9500 ho         1 AQJ       0.410000
     73 H41         -4.6290    -1.5580     1.7440 h1         1 AQJ       0.032700
     74 H42         -5.7200    -1.7640    -1.0930 hc         1 AQJ       0.057700
     75 H43         -6.6600    -1.8000     0.3940 hc         1 AQJ       0.057700
     76 H44         -5.9080     0.4780     0.9730 h1         1 AQJ       0.064700
     77 H46         -7.9420     0.9380    -2.5810 h1         1 AQJ       0.029867
     78 H47         -6.2450     0.5120    -2.7050 h1         1 AQJ       0.029867
     79 H48         -7.4350    -0.7230    -2.2730 h1         1 AQJ       0.029867
     80 CAB         -4.3660    -3.3730     0.6380 c3         1 AQJ      -0.088100
     81 H11         -3.4760    -3.6870     1.1840 hc         1 AQJ       0.046033
     82 CAG         -8.2130     0.5530    -0.0020 c3         1 AQJ       0.159100
     83 H12         -5.2280    -3.8650     1.0890 hc         1 AQJ       0.046033
     84 H13         -4.2790    -3.7220    -0.3930 hc         1 AQJ       0.046033
@<TRIPOS>BOND
     1     1    18 1   
     2     1    21 1   
     3     1    22 1   
     4     1    36 1   
     5     2     3 1   
     6     2    28 1   
     7     2    30 1   
     8     2    37 1   
     9     3    29 1   
    10     3    33 1   
    11     3    38 1   
    12     4    12 1   
    13     4    25 1   
    14     4    27 1   
    15     4    39 1   
    16     5    11 1   
    17     5    23 1   
    18     5    25 1   
    19     5    40 1   
    20     6    10 1   
    21     6    13 1   
    22     6    27 1   
    23     6    41 1   
    24     7     9 1   
    25     7    13 1   
    26     7    14 1   
    27     7    42 1   
    28     8    21 1   
    29     8    43 1   
    30     8    44 1   
    31     8    45 1   
    32     9    46 1   
    33     9    47 1   
    34     9    48 1   
    35    10    49 1   
    36    10    50 1   
    37    10    51 1   
    38    11    52 1   
    39    11    53 1   
    40    11    54 1   
    41    12    55 1   
    42    12    56 1   
    43    12    57 1   
    44    13    61 1   
    45    13    62 1   
    46    14    15 2   
    47    14    16 1   
    48    16    17 2   
    49    16    63 1   
    50    17    18 1   
    51    17    64 1   
    52    18    19 1   
    53    18    20 1   
    54    19    65 1   
    55    19    66 1   
    56    19    67 1   
    57    20    68 1   
    58    21    69 1   
    59    21    70 1   
    60    22    23 1   
    61    23    24 2   
    62    25    26 2   
    63    27    28 1   
    64    27    71 1   
    65    29    72 1   
    66    30    31 1   
    67    31    32 1   
    68    31    73 1   
    69    31    80 1   
    70    32    33 1   
    71    32    74 1   
    72    32    75 1   
    73    33    34 1   
    74    33    76 1   
    75    34    35 1   
    76    34    82 1   
    77    35    77 1   
    78    35    78 1   
    79    35    79 1   
    80    58    82 1   
    81    59    82 1   
    82    60    82 1   
    83    80    81 1   
    84    80    83 1   
    85    80    84 1   
@<TRIPOS>SUBSTRUCTURE
     1 AQJ         1 TEMP              0 ****  ****    0 ROOT
