@<TRIPOS>MOLECULE
AQK
   25    24     1     0     0
SMALL
No Charge or Current Charge


@<TRIPOS>ATOM
      1 OAB          3.4650    -1.0430     1.0530 o          1 AQK      -0.765500
      2 CAK          3.0610    -1.1630    -0.0980 c          1 AQK       0.718000
      3 OAD          3.4660    -2.0370    -0.8550 o          1 AQK      -0.765500
      4 CAI          1.9570    -0.1590    -0.6180 c3         1 AQK       0.037800
      5 N            0.6360    -0.2170     0.0960 n7         1 AQK      -0.857400
      6 CA          -0.3860     0.7970    -0.3450 c3         1 AQK       0.040500
      7 C           -0.0110     2.3000    -0.0110 c          1 AQK       0.690000
      8 O            0.2360     2.6030     1.1510 o          1 AQK      -0.751500
      9 CB          -1.7760     0.4460     0.2540 c3         1 AQK      -0.048400
     10 CAG         -2.3890    -0.8710    -0.2820 c3         1 AQK      -0.077400
     11 CAF         -3.7890    -1.1570     0.2990 c3         1 AQK       0.141800
     12 NAA         -4.3580    -2.4080    -0.2330 n8         1 AQK      -1.001200
     13 OXT          0.0710     3.1000    -0.9350 o          1 AQK      -0.751500
     14 H2           2.3790     0.8510    -0.5300 h1         1 AQK       0.008200
     15 H3           1.8040    -0.3480    -1.6890 h1         1 AQK       0.008200
     16 H4           0.8180    -0.0580     1.0970 hn         1 AQK       0.429000
     17 H6          -0.4900     0.7400    -1.4370 h1         1 AQK       0.026700
     18 H7          -1.7050     0.3980     1.3480 hc         1 AQK       0.023200
     19 H8          -2.4680     1.2650     0.0220 hc         1 AQK       0.023200
     20 H9          -2.4550    -0.8160    -1.3760 hc         1 AQK       0.050700
     21 H10         -1.7230    -1.7090    -0.0420 hc         1 AQK       0.050700
     22 H11         -3.7270    -1.2400     1.3920 h1         1 AQK       0.013200
     23 H12         -4.4700    -0.3320     0.0490 h1         1 AQK       0.013200
     24 H13         -3.7660    -3.1930     0.0630 hn         1 AQK       0.371500
     25 H14         -5.2550    -2.5900     0.2330 hn         1 AQK       0.371500
@<TRIPOS>BOND
     1     1     2 1   
     2     2     3 1   
     3     2     4 1   
     4     4     5 1   
     5     4    14 1   
     6     4    15 1   
     7     5     6 1   
     8     5    16 1   
     9     6     7 1   
    10     6     9 1   
    11     6    17 1   
    12     7     8 1   
    13     7    13 1   
    14     9    10 1   
    15     9    18 1   
    16     9    19 1   
    17    10    11 1   
    18    10    20 1   
    19    10    21 1   
    20    11    12 1   
    21    11    22 1   
    22    11    23 1   
    23    12    24 1   
    24    12    25 1   
@<TRIPOS>SUBSTRUCTURE
     1 AQK         1 TEMP              0 ****  ****    0 ROOT
