@<TRIPOS>MOLECULE
AQK
   25    24     1     0     0
SMALL
abcg2


@<TRIPOS>ATOM
      1 OAB          2.7420    -1.5060     1.1310 o          1 AQK      -0.765500
      2 CAK          2.9150    -1.1140    -0.0400 c          1 AQK       0.718000
      3 OAD          3.9100    -1.3380    -0.7600 o          1 AQK      -0.765500
      4 CAI          1.8260    -0.2250    -0.6640 c3         1 AQK       0.037800
      5 N            0.5740    -0.2530     0.0560 n7         1 AQK      -0.857400
      6 CA          -0.3570     0.7730    -0.3650 c3         1 AQK       0.040500
      7 C            0.0360     2.2180     0.0330 c          1 AQK       0.690000
      8 O            0.7750     2.3550     1.0290 o          1 AQK      -0.751500
      9 CB          -1.7570     0.4790     0.1880 c3         1 AQK      -0.048400
     10 CAG         -2.3230    -0.8620    -0.2580 c3         1 AQK      -0.077400
     11 CAF         -3.7220    -1.1180     0.2820 c3         1 AQK       0.141800
     12 NAA         -4.2170    -2.4200    -0.1460 n8         1 AQK      -1.001200
     13 OXT         -0.4620     3.1380    -0.6500 o          1 AQK      -0.751500
     14 H2           2.2570     0.7880    -0.7490 h1         1 AQK       0.008200
     15 H3           1.6570    -0.5530    -1.6950 h1         1 AQK       0.008200
     16 H4           0.7800    -0.1190     1.0380 hn         1 AQK       0.429000
     17 H6          -0.4250     0.7320    -1.4590 h1         1 AQK       0.026700
     18 H7          -1.7240     0.5170     1.2840 hc         1 AQK       0.023200
     19 H8          -2.4310     1.2810    -0.1260 hc         1 AQK       0.023200
     20 H9          -2.3490    -0.9050    -1.3520 hc         1 AQK       0.050700
     21 H10         -1.6520    -1.6610     0.0670 hc         1 AQK       0.050700
     22 H11         -3.7110    -0.9930     1.3750 h1         1 AQK       0.013200
     23 H12         -4.4020    -0.3520    -0.1030 h1         1 AQK       0.013200
     24 H13         -3.6580    -3.1440     0.2880 hn         1 AQK       0.371500
     25 H14         -5.1570    -2.5580     0.2030 hn         1 AQK       0.371500
@<TRIPOS>BOND
     1     1     2 1   
     2     2     3 1   
     3     2     4 1   
     4     4     5 1   
     5     4    14 1   
     6     4    15 1   
     7     5     6 1   
     8     5    16 1   
     9     6     7 1   
    10     6     9 1   
    11     6    17 1   
    12     7     8 1   
    13     7    13 1   
    14     9    10 1   
    15     9    18 1   
    16     9    19 1   
    17    10    11 1   
    18    10    20 1   
    19    10    21 1   
    20    11    12 1   
    21    11    22 1   
    22    11    23 1   
    23    12    24 1   
    24    12    25 1   
@<TRIPOS>SUBSTRUCTURE
     1 AQK         1 TEMP              0 ****  ****    0 ROOT
