@<TRIPOS>MOLECULE
AQL
   66    70     1     0     0
SMALL
abcg2


@<TRIPOS>ATOM
      1 O          -13.8950     3.7130   -66.6800 o          1 AQL      -0.523100
      2 C          -13.2110     4.3190   -67.4890 c          1 AQL       0.613300
      3 C29        -11.7410     4.3480   -67.4370 ca         1 AQL      -0.258600
      4 C23        -10.9840     3.9430   -66.3050 ca         1 AQL       0.047700
      5 C24        -11.6190     3.5220   -65.0020 c3         1 AQL      -0.008900
      6 C25        -12.1730     4.6970   -64.2400 c2         1 AQL      -0.205200
      7 C26        -12.1630     4.8670   -62.9150 c2         1 AQL      -0.122400
      8 C28        -11.6060     3.8840   -61.9300 c3         1 AQL      -0.055400
      9 C27        -12.7490     6.1000   -62.2920 c3         1 AQL      -0.055400
     10 C21         -9.6030     3.9740   -66.3850 ca         1 AQL      -0.041900
     11 O5          -8.7980     3.6150   -65.3430 os         1 AQL      -0.366100
     12 C22         -8.5390     4.6610   -64.4060 c3         1 AQL       0.133900
     13 C20         -8.9410     4.3460   -67.5720 ca         1 AQL       0.191100
     14 O4          -7.6090     4.3230   -67.6510 oh         1 AQL      -0.520100
     15 C19         -9.6690     4.7480   -68.6720 ca         1 AQL      -0.191000
     16 C18        -11.0510     4.7640   -68.5780 ca         1 AQL       0.198100
     17 O3         -11.6860     5.1890   -69.6920 os         1 AQL      -0.215200
     18 C2         -13.0110     5.4140   -69.6970 ca         1 AQL       0.220100
     19 C3         -13.5210     5.9760   -70.8580 ca         1 AQL      -0.209000
     20 C4         -14.8780     6.2200   -70.9300 ca         1 AQL       0.235100
     21 C10        -15.7250     5.9460   -69.8390 ca         1 AQL      -0.205800
     22 C9         -17.1200     6.3420   -69.9570 ce         1 AQL      -0.109200
     23 C8         -17.6000     6.7090   -71.1420 c2         1 AQL      -0.269200
     24 C5         -16.7500     6.6640   -72.3790 c6         1 AQL       0.232200
     25 C6         -17.0570     7.8390   -73.2930 c3         1 AQL      -0.098600
     26 C7         -16.9460     5.3370   -73.1060 c3         1 AQL      -0.098600
     27 O1         -15.3520     6.8000   -72.0340 os         1 AQL      -0.345100
     28 C11        -15.1850     5.3720   -68.6990 ca         1 AQL       0.252100
     29 C1         -13.8090     5.0630   -68.6070 ca         1 AQL      -0.314600
     30 O2         -16.0330     5.1200   -67.6800 os         1 AQL      -0.352100
     31 C12        -15.8700     5.8880   -66.5000 c3         1 AQL       0.221900
     32 C13        -16.3330     5.1170   -65.3030 ca         1 AQL      -0.041300
     33 C17        -17.1630     4.0070   -65.3850 ca         1 AQL      -0.144500
     34 C16        -17.5670     3.3880   -64.2110 ca         1 AQL       0.332400
     35 N          -17.2100     3.7920   -62.9980 nb         1 AQL      -0.665000
     36 C15        -16.4180     4.8570   -62.9250 ca         1 AQL       0.332400
     37 C14        -15.9590     5.5460   -64.0340 ca         1 AQL      -0.144500
     38 H1         -12.4110     2.8030   -65.2040 hc         1 AQL       0.080700
     39 H2         -10.8760     2.9950   -64.4050 hc         1 AQL       0.080700
     40 H3         -12.6260     5.4800   -64.8410 ha         1 AQL       0.168000
     41 H4         -10.8540     4.3590   -61.2960 hc         1 AQL       0.038700
     42 H5         -12.3940     3.5300   -61.2610 hc         1 AQL       0.038700
     43 H6         -11.1520     3.0100   -62.3920 hc         1 AQL       0.038700
     44 H7         -13.5960     5.8490   -61.6470 hc         1 AQL       0.038700
     45 H8         -12.0140     6.6030   -61.6580 hc         1 AQL       0.038700
     46 H9         -13.0940     6.8140   -63.0400 hc         1 AQL       0.038700
     47 H10         -7.8410     4.2650   -63.6720 h1         1 AQL       0.043033
     48 H11         -8.0890     5.5310   -64.8910 h1         1 AQL       0.043033
     49 H12         -9.4520     4.9770   -63.8980 h1         1 AQL       0.043033
     50 H13         -7.2400     3.9430   -66.8410 ho         1 AQL       0.488000
     51 H14         -9.1750     5.0530   -69.5860 ha         1 AQL       0.153000
     52 H15        -12.8670     6.2150   -71.6880 ha         1 AQL       0.152000
     53 H16        -17.7490     6.3460   -69.0770 ha         1 AQL       0.198000
     54 H17        -18.6330     7.0130   -71.2610 ha         1 AQL       0.191000
     55 H18        -16.9140     8.7890   -72.7790 hc         1 AQL       0.050533
     56 H19        -16.4220     7.8200   -74.1800 hc         1 AQL       0.050533
     57 H20        -18.0940     7.7850   -73.6220 hc         1 AQL       0.050533
     58 H21        -16.6760     4.4920   -72.4710 hc         1 AQL       0.050533
     59 H22        -17.9920     5.2200   -73.3890 hc         1 AQL       0.050533
     60 H23        -16.3430     5.3000   -74.0140 hc         1 AQL       0.050533
     61 H24        -14.8330     6.2020   -66.3560 h1         1 AQL       0.046700
     62 H25        -16.4660     6.8050   -66.5890 h1         1 AQL       0.046700
     63 H26        -17.4950     3.6140   -66.3350 ha         1 AQL       0.126500
     64 H27        -18.2140     2.5190   -64.2600 h4         1 AQL       0.015600
     65 H28        -16.1270     5.1790   -61.9310 h4         1 AQL       0.015600
     66 H29        -15.3110     6.4040   -63.9040 ha         1 AQL       0.126500
@<TRIPOS>BOND
     1     1     2 2   
     2     2     3 1   
     3     2    29 1   
     4     3     4 ar  
     5     3    16 ar  
     6     4     5 1   
     7     4    10 ar  
     8     5     6 1   
     9     5    38 1   
    10     5    39 1   
    11     6     7 2   
    12     6    40 1   
    13     7     8 1   
    14     7     9 1   
    15     8    41 1   
    16     8    42 1   
    17     8    43 1   
    18     9    44 1   
    19     9    45 1   
    20     9    46 1   
    21    10    11 1   
    22    10    13 ar  
    23    11    12 1   
    24    12    47 1   
    25    12    48 1   
    26    12    49 1   
    27    13    14 1   
    28    13    15 ar  
    29    14    50 1   
    30    15    16 ar  
    31    15    51 1   
    32    16    17 1   
    33    17    18 1   
    34    18    19 ar  
    35    18    29 ar  
    36    19    20 ar  
    37    19    52 1   
    38    20    21 ar  
    39    20    27 1   
    40    21    22 1   
    41    21    28 ar  
    42    22    23 2   
    43    22    53 1   
    44    23    24 1   
    45    23    54 1   
    46    24    25 1   
    47    24    26 1   
    48    24    27 1   
    49    25    55 1   
    50    25    56 1   
    51    25    57 1   
    52    26    58 1   
    53    26    59 1   
    54    26    60 1   
    55    28    29 ar  
    56    28    30 1   
    57    30    31 1   
    58    31    32 1   
    59    31    61 1   
    60    31    62 1   
    61    32    33 ar  
    62    32    37 ar  
    63    33    34 ar  
    64    33    63 1   
    65    34    35 ar  
    66    34    64 1   
    67    35    36 ar  
    68    36    37 ar  
    69    36    65 1   
    70    37    66 1   
@<TRIPOS>SUBSTRUCTURE
     1 AQL         1 TEMP              0 ****  ****    0 ROOT
