@<TRIPOS>MOLECULE
AQL
   66    70     1     0     0
SMALL
No Charge or Current Charge


@<TRIPOS>ATOM
      1 O          -13.3110     3.2720   -66.8020 o          1 AQL      -0.523100
      2 C          -12.7530     4.0700   -67.5400 c          1 AQL       0.613300
      3 C29        -11.2650     4.2920   -67.5150 ca         1 AQL      -0.258600
      4 C23        -10.4540     4.1360   -66.3510 ca         1 AQL       0.047700
      5 C24        -11.0600     3.7840   -64.9820 c3         1 AQL      -0.008900
      6 C25        -11.9030     4.9130   -64.4070 c2         1 AQL      -0.205200
      7 C26        -12.6830     4.8620   -63.3110 c2         1 AQL      -0.122400
      8 C28        -12.8590     3.6410   -62.4220 c3         1 AQL      -0.055400
      9 C27        -13.4840     6.0560   -62.8240 c3         1 AQL      -0.055400
     10 C21         -9.0550     4.3630   -66.4650 ca         1 AQL      -0.041900
     11 O5          -8.2170     4.2700   -65.3710 os         1 AQL      -0.366100
     12 C22         -8.1140     5.3850   -64.4650 c3         1 AQL       0.133900
     13 C20         -8.4850     4.6940   -67.7070 ca         1 AQL       0.191100
     14 O4          -7.1380     4.8740   -67.8040 oh         1 AQL      -0.520100
     15 C19         -9.2890     4.8610   -68.8320 ca         1 AQL      -0.191000
     16 C18        -10.6710     4.6800   -68.7310 ca         1 AQL       0.198100
     17 O3         -11.4350     4.8990   -69.8510 os         1 AQL      -0.215200
     18 C2         -12.7850     5.1220   -69.7770 ca         1 AQL       0.220100
     19 C3         -13.4320     5.7080   -70.8700 ca         1 AQL      -0.209000
     20 C4         -14.8080     5.9450   -70.8200 ca         1 AQL       0.235100
     21 C10        -15.5390     5.6350   -69.6590 ca         1 AQL      -0.205800
     22 C9         -16.9840     5.9790   -69.6360 ce         1 AQL      -0.109200
     23 C8         -17.5950     6.3690   -70.7690 c2         1 AQL      -0.269200
     24 C5         -16.8480     6.4090   -72.0940 c6         1 AQL       0.232200
     25 C6         -17.3060     7.6170   -72.9490 c3         1 AQL      -0.098600
     26 C7         -17.0830     5.0880   -72.8700 c3         1 AQL      -0.098600
     27 O1         -15.4210     6.5460   -71.9020 os         1 AQL      -0.345100
     28 C11        -14.8810     5.0560   -68.5560 ca         1 AQL       0.252100
     29 C1         -13.5000     4.7700   -68.6260 ca         1 AQL      -0.314600
     30 O2         -15.6050     4.8130   -67.4150 os         1 AQL      -0.352100
     31 C12        -15.3860     5.6370   -66.2580 c3         1 AQL       0.221900
     32 C13        -16.2700     5.1350   -65.1260 ca         1 AQL      -0.041300
     33 C17        -17.3700     5.8830   -64.6660 ca         1 AQL      -0.144500
     34 C16        -18.1510     5.3810   -63.6110 ca         1 AQL       0.332400
     35 N          -17.8990     4.1980   -63.0030 nb         1 AQL      -0.665000
     36 C15        -16.8420     3.4780   -63.4460 ca         1 AQL       0.332400
     37 C14        -16.0100     3.9050   -64.4950 ca         1 AQL      -0.144500
     38 H1         -11.6420     2.8600   -65.0550 hc         1 AQL       0.080700
     39 H2         -10.2770     3.5280   -64.2600 hc         1 AQL       0.080700
     40 H3         -11.8340     5.8430   -64.9740 ha         1 AQL       0.168000
     41 H4         -12.5460     3.8590   -61.3940 hc         1 AQL       0.038700
     42 H5         -13.9080     3.3260   -62.3880 hc         1 AQL       0.038700
     43 H6         -12.2720     2.7810   -62.7620 hc         1 AQL       0.038700
     44 H7         -14.5530     5.8210   -62.7670 hc         1 AQL       0.038700
     45 H8         -13.1580     6.3660   -61.8240 hc         1 AQL       0.038700
     46 H9         -13.3730     6.9200   -63.4900 hc         1 AQL       0.038700
     47 H10         -7.4150     5.1540   -63.6520 h1         1 AQL       0.043033
     48 H11         -7.7490     6.2780   -64.9890 h1         1 AQL       0.043033
     49 H12         -9.0880     5.6240   -64.0210 h1         1 AQL       0.043033
     50 H13         -6.7730     4.6710   -66.9160 ho         1 AQL       0.488000
     51 H14         -8.8460     5.1430   -69.7830 ha         1 AQL       0.153000
     52 H15        -12.8680     5.9750   -71.7580 ha         1 AQL       0.152000
     53 H16        -17.5160     5.9110   -68.6840 ha         1 AQL       0.198000
     54 H17        -18.6550     6.6310   -70.7840 ha         1 AQL       0.191000
     55 H18        -17.1420     8.5600   -72.4150 hc         1 AQL       0.050533
     56 H19        -16.7530     7.6680   -73.8950 hc         1 AQL       0.050533
     57 H20        -18.3730     7.5530   -73.1900 hc         1 AQL       0.050533
     58 H21        -16.7560     4.2210   -72.2840 hc         1 AQL       0.050533
     59 H22        -18.1460     4.9480   -73.1010 hc         1 AQL       0.050533
     60 H23        -16.5320     5.0780   -73.8170 hc         1 AQL       0.050533
     61 H24        -14.3380     5.6000   -65.9380 h1         1 AQL       0.046700
     62 H25        -15.6280     6.6830   -66.4850 h1         1 AQL       0.046700
     63 H26        -17.6210     6.8400   -65.1130 ha         1 AQL       0.126500
     64 H27        -19.0070     5.9430   -63.2390 h4         1 AQL       0.015600
     65 H28        -16.6560     2.5290   -62.9430 h4         1 AQL       0.015600
     66 H29        -15.1750     3.2860   -64.8060 ha         1 AQL       0.126500
@<TRIPOS>BOND
     1     1     2 2   
     2     2     3 1   
     3     2    29 1   
     4     3     4 ar  
     5     3    16 ar  
     6     4     5 1   
     7     4    10 ar  
     8     5     6 1   
     9     5    38 1   
    10     5    39 1   
    11     6     7 2   
    12     6    40 1   
    13     7     8 1   
    14     7     9 1   
    15     8    41 1   
    16     8    42 1   
    17     8    43 1   
    18     9    44 1   
    19     9    45 1   
    20     9    46 1   
    21    10    11 1   
    22    10    13 ar  
    23    11    12 1   
    24    12    47 1   
    25    12    48 1   
    26    12    49 1   
    27    13    14 1   
    28    13    15 ar  
    29    14    50 1   
    30    15    16 ar  
    31    15    51 1   
    32    16    17 1   
    33    17    18 1   
    34    18    19 ar  
    35    18    29 ar  
    36    19    20 ar  
    37    19    52 1   
    38    20    21 ar  
    39    20    27 1   
    40    21    22 1   
    41    21    28 ar  
    42    22    23 2   
    43    22    53 1   
    44    23    24 1   
    45    23    54 1   
    46    24    25 1   
    47    24    26 1   
    48    24    27 1   
    49    25    55 1   
    50    25    56 1   
    51    25    57 1   
    52    26    58 1   
    53    26    59 1   
    54    26    60 1   
    55    28    29 ar  
    56    28    30 1   
    57    30    31 1   
    58    31    32 1   
    59    31    61 1   
    60    31    62 1   
    61    32    33 ar  
    62    32    37 ar  
    63    33    34 ar  
    64    33    63 1   
    65    34    35 ar  
    66    34    64 1   
    67    35    36 ar  
    68    36    37 ar  
    69    36    65 1   
    70    37    66 1   
@<TRIPOS>SUBSTRUCTURE
     1 AQL         1 TEMP              0 ****  ****    0 ROOT
