@<TRIPOS>MOLECULE
AQM
   92    97     1     0     0
SMALL
No Charge or Current Charge


@<TRIPOS>ATOM
      1 N1          -1.8050     3.8700    -1.1680 nb         1 AQM      -0.273000
      2 C2          -2.4730     5.0130    -1.4070 ca         1 AQM       0.164900
      3 N3          -3.8040     5.2010    -1.3100 nb         1 AQM      -0.200000
      4 C4          -4.5530     4.1440    -0.9340 ca         1 AQM       0.027000
      5 C5          -3.9470     2.8940    -0.6530 ca         1 AQM      -0.145000
      6 C6          -2.5370     2.8100    -0.7830 ca         1 AQM       0.402900
      7 CAB          9.5060     2.7590     3.4740 c3         1 AQM      -0.080433
      8 CAC         10.0110     3.3750     1.0700 c3         1 AQM      -0.080433
      9 CAD         11.4480     1.6920     2.2750 c3         1 AQM      -0.080433
     10 OAF         -5.7170    -1.0390     0.3520 o          1 AQM      -0.586100
     11 CAH          7.0610    -4.2260     0.9240 ca         1 AQM      -0.060000
     12 CAI          7.5610    -4.6390    -0.3220 ca         1 AQM      -0.185000
     13 CAJ          7.2820    -2.9090     1.3620 ca         1 AQM      -0.187000
     14 CAK          1.7740     1.8370     0.3580 ca         1 AQM      -0.109000
     15 CAL          1.2960    -0.3680    -0.5340 ca         1 AQM      -0.109000
     16 CAM          0.4280     2.2010     0.1660 ca         1 AQM      -0.113000
     17 CAN         -0.0490     0.0000    -0.7240 ca         1 AQM      -0.113000
     18 CAO         -6.7370     3.1780    -0.4210 ca         1 AQM      -0.131000
     19 CAQ         -5.9470     4.2710    -0.8130 ca         1 AQM      -0.067000
     20 CAR          8.4980    -2.4300    -0.6900 ca         1 AQM      -0.169000
     21 CAS          7.6690     1.3510     1.3960 cc         1 AQM      -0.233000
     22 CAT         -4.7480     1.7970    -0.2510 ca         1 AQM      -0.111000
     23 CAU         -8.0400    -1.2460     0.9410 c3         1 AQM      -0.162400
     24 CAV         -8.5690    -2.1380    -0.1990 c3         1 AQM       0.175800
     25 CAW        -11.1650    -5.0010    -0.4520 c6         1 AQM       0.164300
     26 CAX        -12.0890    -3.2820     1.0130 c6         1 AQM       0.164300
     27 CAY        -10.0080    -4.0340    -0.8690 c6         1 AQM       0.126300
     28 CAZ        -10.9360    -2.3040     0.6100 c6         1 AQM       0.126300
     29 NBC          9.4160    -0.1300     1.3680 nd         1 AQM      -0.514800
     30 NBG         -1.8420     1.6140    -0.5790 nu         1 AQM      -0.929900
     31 CBI          4.7160     0.7510     0.5930 c          1 AQM       0.671100
     32 CBJ          8.2800    -3.7440    -1.1270 ca         1 AQM       0.311000
     33 CBK          2.2220     0.5460     0.0020 ca         1 AQM      -0.041000
     34 CBL         -0.4910     1.2910    -0.3890 ca         1 AQM       0.284000
     35 CBM         -6.1500     1.9330    -0.1400 ca         1 AQM      -0.034000
     36 CBN          7.9990    -2.0040     0.5550 ca         1 AQM       0.058800
     37 CBO          9.0470     1.1170     1.6220 cc         1 AQM       0.281300
     38 CBP          7.1220     0.1790     0.9720 cd         1 AQM       0.032600
     39 NBT        -12.4130    -4.2720    -0.0620 n3         1 AQM      -0.714600
     40 NBU         -9.6890    -3.0280     0.1930 n3         1 AQM      -0.715600
     41 NBV          8.2140    -0.6920     0.9840 na         1 AQM       0.173000
     42 H2          -1.8800     5.8720    -1.7150 h5         1 AQM       0.047100
     43 HAA        -13.3870    -4.4470    -1.9510 h1         1 AQM       0.030367
     44 HAAA       -14.0620    -3.1990    -0.8840 h1         1 AQM       0.030367
     45 HAAB       -12.5190    -2.9130    -1.7190 h1         1 AQM       0.030367
     46 HAB          8.5040     3.1990     3.3960 hc         1 AQM       0.036589
     47 HABA         9.4630     1.9530     4.2160 hc         1 AQM       0.036589
     48 HABB        10.1820     3.5340     3.8540 hc         1 AQM       0.036589
     49 HAC         10.7020     4.1690     1.3800 hc         1 AQM       0.036589
     50 HACA        10.3320     3.0120     0.0860 hc         1 AQM       0.036589
     51 HACB         9.0170     3.8240     0.9550 hc         1 AQM       0.036589
     52 HAD         11.4890     0.8790     3.0110 hc         1 AQM       0.036589
     53 HADA        11.8450     1.3130     1.3250 hc         1 AQM       0.036589
     54 HADB        12.1160     2.4900     2.6220 hc         1 AQM       0.036589
     55 HNAE         8.7360    -5.1430    -2.5830 hn         1 AQM       0.457000
     56 HNAA         9.4150    -3.5640    -2.8520 hn         1 AQM       0.457000
     57 HAH          6.5060    -4.9230     1.5490 ha         1 AQM       0.115000
     58 HAI          7.3890    -5.6580    -0.6580 ha         1 AQM       0.116000
     59 HAJ          6.8980    -2.5910     2.3290 ha         1 AQM       0.128000
     60 HAK          2.4440     2.5710     0.7930 ha         1 AQM       0.124500
     61 HAL          1.6160    -1.3710    -0.8080 ha         1 AQM       0.124500
     62 HAM          0.1040     3.1910     0.4690 ha         1 AQM       0.130500
     63 HAN         -0.7450    -0.7210    -1.1410 ha         1 AQM       0.130500
     64 HAO         -7.8140     3.3050    -0.3360 ha         1 AQM       0.113000
     65 HAQ         -6.4230     5.2260    -1.0260 ha         1 AQM       0.137000
     66 HAR          9.0530    -1.7360    -1.3140 ha         1 AQM       0.138000
     67 HAS          7.1710     2.3020     1.5360 ha         1 AQM       0.170000
     68 HAT         -4.2770     0.8510    -0.0110 ha         1 AQM       0.144000
     69 HAU         -8.8210    -0.5400     1.2420 hc         1 AQM       0.068200
     70 HAUA        -7.7660    -1.8900     1.7840 hc         1 AQM       0.068200
     71 HAV         -8.8730    -1.4980    -1.0390 h1         1 AQM       0.047700
     72 HAVA        -7.7320    -2.7550    -0.5560 h1         1 AQM       0.047700
     73 HAW        -11.3650    -5.6990    -1.2780 h1         1 AQM       0.058950
     74 HAWA       -10.8120    -5.6100     0.3930 h1         1 AQM       0.058950
     75 HAX        -11.7790    -3.8150     1.9240 h1         1 AQM       0.058950
     76 HAXA       -12.9800    -2.6960     1.2820 h1         1 AQM       0.058950
     77 HAY         -9.1170    -4.6380    -1.0950 h1         1 AQM       0.034950
     78 HAYA       -10.2880    -3.5230    -1.8020 h1         1 AQM       0.034950
     79 HAZ        -11.2860    -1.6530    -0.2050 h1         1 AQM       0.034950
     80 HAZA       -10.7350    -1.6540     1.4730 h1         1 AQM       0.034950
     81 HNBD        -7.9720     1.1680     0.4050 hn         1 AQM       0.152000
     82 HNBE         3.6980    -0.8700    -0.0700 hn         1 AQM       0.149000
     83 HNBG        -2.4420     0.7970    -0.6650 hn         1 AQM       0.505000
     84 HNBF         5.5920    -1.0390     0.3160 hn         1 AQM       0.328500
     85 NBD         -7.0150     0.8750     0.2580 ns         1 AQM      -0.147000
     86 NBE          3.5650     0.1030     0.1680 ns         1 AQM      -0.165000
     87 CBH         -6.8000    -0.4800     0.4820 c          1 AQM       0.609100
     88 CAA        -13.1290    -3.6740    -1.2150 c3         1 AQM       0.152100
     89 OAG          4.7730     1.9300     0.9130 o          1 AQM      -0.590100
     90 NBF          5.8080    -0.0950     0.6100 ns         1 AQM      -0.419100
     91 CBW          9.9930     2.2170     2.1030 c3         1 AQM      -0.072300
     92 NAE          8.7650    -4.1550    -2.3370 nv         1 AQM      -1.077000
@<TRIPOS>BOND
     1     1     2 ar  
     2     1     6 ar  
     3     2     3 ar  
     4     2    42 1   
     5     3     4 ar  
     6     4     5 ar  
     7     4    19 ar  
     8     5     6 ar  
     9     5    22 ar  
    10     6    30 1   
    11     7    46 1   
    12     7    47 1   
    13     7    48 1   
    14     7    91 1   
    15     8    49 1   
    16     8    50 1   
    17     8    51 1   
    18     8    91 1   
    19     9    52 1   
    20     9    53 1   
    21     9    54 1   
    22     9    91 1   
    23    10    87 2   
    24    11    12 ar  
    25    11    13 ar  
    26    11    57 1   
    27    12    32 ar  
    28    12    58 1   
    29    13    36 ar  
    30    13    59 1   
    31    14    16 ar  
    32    14    33 ar  
    33    14    60 1   
    34    15    17 ar  
    35    15    33 ar  
    36    15    61 1   
    37    16    34 ar  
    38    16    62 1   
    39    17    34 ar  
    40    17    63 1   
    41    18    19 ar  
    42    18    35 ar  
    43    18    64 1   
    44    19    65 1   
    45    20    32 ar  
    46    20    36 ar  
    47    20    66 1   
    48    21    37 1   
    49    21    38 2   
    50    21    67 1   
    51    22    35 ar  
    52    22    68 1   
    53    23    24 1   
    54    23    69 1   
    55    23    70 1   
    56    23    87 1   
    57    24    40 1   
    58    24    71 1   
    59    24    72 1   
    60    25    27 1   
    61    25    39 1   
    62    25    73 1   
    63    25    74 1   
    64    26    28 1   
    65    26    39 1   
    66    26    75 1   
    67    26    76 1   
    68    27    40 1   
    69    27    77 1   
    70    27    78 1   
    71    28    40 1   
    72    28    79 1   
    73    28    80 1   
    74    29    37 2   
    75    29    41 1   
    76    30    34 1   
    77    30    83 1   
    78    31    86 1   
    79    31    89 2   
    80    31    90 1   
    81    32    92 1   
    82    33    86 1   
    83    35    85 1   
    84    36    41 1   
    85    37    91 1   
    86    38    41 1   
    87    38    90 1   
    88    39    88 1   
    89    43    88 1   
    90    44    88 1   
    91    45    88 1   
    92    55    92 1   
    93    56    92 1   
    94    81    85 1   
    95    82    86 1   
    96    84    90 1   
    97    85    87 1   
@<TRIPOS>SUBSTRUCTURE
     1 AQM         1 TEMP              0 ****  ****    0 ROOT
