@<TRIPOS>MOLECULE
AQM
   92    97     1     0     0
SMALL
abcg2


@<TRIPOS>ATOM
      1 N1          -1.7650     4.1030    -1.6870 nb         1 AQM      -0.273000
      2 C2          -2.3490     5.2410    -2.0870 ca         1 AQM       0.164900
      3 N3          -3.6220     5.4970    -2.1570 nb         1 AQM      -0.200000
      4 C4          -4.4510     4.4940    -1.7640 ca         1 AQM       0.027000
      5 C5          -3.9740     3.2510    -1.3070 ca         1 AQM      -0.145000
      6 C6          -2.5390     3.1100    -1.3100 ca         1 AQM       0.402900
      7 CAB          8.5790     0.8110     4.5580 c3         1 AQM      -0.080433
      8 CAC          8.9810     2.7790     3.0690 c3         1 AQM      -0.080433
      9 CAD         10.5620     0.8480     3.0390 c3         1 AQM      -0.080433
     10 OAF         -5.9680    -0.2160     0.1660 o          1 AQM      -0.586100
     11 CAH          6.9950    -3.9140    -1.2050 ca         1 AQM      -0.060000
     12 CAI          8.1290    -4.0070    -1.9900 ca         1 AQM      -0.185000
     13 CAJ          6.8160    -2.8610    -0.3160 ca         1 AQM      -0.187000
     14 CAK          1.7150     2.0260    -0.5350 ca         1 AQM      -0.109000
     15 CAL          0.9910    -0.2030    -1.0270 ca         1 AQM      -0.109000
     16 CAM          0.4030     2.4690    -0.5890 ca         1 AQM      -0.113000
     17 CAN         -0.3160     0.2400    -1.1060 ca         1 AQM      -0.113000
     18 CAO         -6.7040     3.7180    -1.4050 ca         1 AQM      -0.131000
     19 CAQ         -5.8450     4.6990    -1.8070 ca         1 AQM      -0.067000
     20 CAR          8.9480    -1.9580    -1.0300 ca         1 AQM      -0.169000
     21 CAS          6.9370     0.9600     1.7420 cc         1 AQM      -0.233000
     22 CAT         -4.8670     2.2480    -0.8860 ca         1 AQM      -0.111000
     23 CAU         -8.3610    -0.3360     0.3770 c3         1 AQM      -0.162400
     24 CAV         -8.2420    -1.8410     0.5620 c3         1 AQM       0.175800
     25 CAW        -10.5000    -4.3800     2.1310 c6         1 AQM       0.164300
     26 CAX        -11.8040    -3.0380     0.6780 c6         1 AQM       0.164300
     27 CAY         -9.2260    -3.7840     1.5460 c6         1 AQM       0.126300
     28 CAZ        -10.5380    -2.4290     0.0860 c6         1 AQM       0.126300
     29 NBC          8.6760    -0.4400     1.4420 nd         1 AQM      -0.514800
     30 NBG         -1.9840     1.9380    -0.9300 nu         1 AQM      -0.929900
     31 CBI          4.2860     0.5350     0.1830 c          1 AQM       0.671100
     32 CBJ          9.1320    -3.0300    -1.9090 ca         1 AQM       0.311000
     33 CBK          2.0260     0.6860    -0.7500 ca         1 AQM      -0.041000
     34 CBL         -0.6300     1.5810    -0.8860 ca         1 AQM       0.284000
     35 CBM         -6.2270     2.4740    -0.9310 ca         1 AQM      -0.034000
     36 CBN          7.8040    -1.8830    -0.2490 ca         1 AQM       0.058800
     37 CBO          8.2520     0.6030     2.1190 cc         1 AQM       0.281300
     38 CBP          6.5950     0.0430     0.7760 cd         1 AQM       0.032600
     39 NBT        -11.6230    -4.3760     1.2100 n3         1 AQM      -0.714600
     40 NBU         -9.4660    -2.4290     1.0710 n3         1 AQM      -0.715600
     41 NBV          7.6570    -0.7920     0.6350 na         1 AQM       0.173000
     42 H2          -1.6680     6.0300    -2.3900 h5         1 AQM       0.047100
     43 HAA        -11.4870    -6.3840     0.6690 h1         1 AQM       0.030367
     44 HAAA       -12.4500    -5.3850    -0.4150 h1         1 AQM       0.030367
     45 HAAB       -10.6890    -5.3240    -0.4920 h1         1 AQM       0.030367
     46 HAB          7.5300     1.0790     4.6940 hc         1 AQM       0.036589
     47 HABA         8.6690    -0.2690     4.6810 hc         1 AQM       0.036589
     48 HABB         9.1520     1.2900     5.3550 hc         1 AQM       0.036589
     49 HAC          9.5970     3.2600     3.8320 hc         1 AQM       0.036589
     50 HACA         9.3180     3.1340     2.0940 hc         1 AQM       0.036589
     51 HACB         7.9550     3.1210     3.2160 hc         1 AQM       0.036589
     52 HAD         10.6940    -0.2290     3.1370 hc         1 AQM       0.036589
     53 HADA        10.9690     1.1470     2.0710 hc         1 AQM       0.036589
     54 HADB        11.1580     1.3290     3.8170 hc         1 AQM       0.036589
     55 HNAE        10.4740    -3.9980    -3.0840 hn         1 AQM       0.457000
     56 HNAA        11.0490    -2.5780    -2.4100 hn         1 AQM       0.457000
     57 HAH          6.2390    -4.6850    -1.2720 ha         1 AQM       0.115000
     58 HAI          8.2490    -4.8410    -2.6710 ha         1 AQM       0.116000
     59 HAJ          5.9480    -2.8260     0.3280 ha         1 AQM       0.128000
     60 HAK          2.4950     2.7450    -0.3320 ha         1 AQM       0.124500
     61 HAL          1.2070    -1.2510    -1.1920 ha         1 AQM       0.124500
     62 HAM          0.1960     3.5110    -0.4110 ha         1 AQM       0.130500
     63 HAN         -1.1020    -0.4700    -1.3330 ha         1 AQM       0.130500
     64 HAO         -7.7720     3.8960    -1.4460 ha         1 AQM       0.113000
     65 HAQ         -6.2210     5.6480    -2.1640 ha         1 AQM       0.137000
     66 HAR          9.6980    -1.1810    -0.9530 ha         1 AQM       0.138000
     67 HAS          6.3420     1.7750     2.1110 ha         1 AQM       0.170000
     68 HAT         -4.5090     1.3030    -0.5130 ha         1 AQM       0.144000
     69 HAU         -9.1170    -0.0870    -0.3710 hc         1 AQM       0.068200
     70 HAUA        -8.6990     0.1180     1.3150 hc         1 AQM       0.068200
     71 HAV         -7.9310    -2.3130    -0.3850 h1         1 AQM       0.047700
     72 HAVA        -7.4510    -2.0440     1.2860 h1         1 AQM       0.047700
     73 HAW        -10.3100    -5.4010     2.4670 h1         1 AQM       0.058950
     74 HAWA       -10.7810    -3.7980     3.0160 h1         1 AQM       0.058950
     75 HAX        -12.1500    -2.3900     1.4910 h1         1 AQM       0.058950
     76 HAXA       -12.5920    -3.0520    -0.0790 h1         1 AQM       0.058950
     77 HAY         -8.4580    -3.7560     2.3230 h1         1 AQM       0.034950
     78 HAYA        -8.8360    -4.4300     0.7400 h1         1 AQM       0.034950
     79 HAZ        -10.2370    -2.9710    -0.8280 h1         1 AQM       0.034950
     80 HAZA       -10.7660    -1.4060    -0.2180 h1         1 AQM       0.034950
     81 HNBD        -8.1510     1.8810    -0.6380 hn         1 AQM       0.152000
     82 HNBE         3.5170    -0.5870    -1.3470 hn         1 AQM       0.149000
     83 HNBG        -2.6150     1.1640    -0.8040 hn         1 AQM       0.505000
     84 HNBF         5.5840    -0.6950    -0.8400 hn         1 AQM       0.328500
     85 NBD         -7.2010     1.5580    -0.5370 ns         1 AQM      -0.147000
     86 NBE          3.3440     0.2070    -0.7490 ns         1 AQM      -0.165000
     87 CBH         -7.0500     0.3140    -0.0060 c          1 AQM       0.609100
     88 CAA        -11.5430    -5.4040     0.1920 c3         1 AQM       0.152100
     89 OAG          4.1000     1.3140     1.0970 o          1 AQM      -0.590100
     90 NBF          5.4820    -0.1070    -0.0250 ns         1 AQM      -0.419100
     91 CBW          9.0970     1.2560     3.1830 c3         1 AQM      -0.072300
     92 NAE         10.2390    -3.0890    -2.7190 nv         1 AQM      -1.077000
@<TRIPOS>BOND
     1     1     2 ar  
     2     1     6 ar  
     3     2     3 ar  
     4     2    42 1   
     5     3     4 ar  
     6     4     5 ar  
     7     4    19 ar  
     8     5     6 ar  
     9     5    22 ar  
    10     6    30 1   
    11     7    46 1   
    12     7    47 1   
    13     7    48 1   
    14     7    91 1   
    15     8    49 1   
    16     8    50 1   
    17     8    51 1   
    18     8    91 1   
    19     9    52 1   
    20     9    53 1   
    21     9    54 1   
    22     9    91 1   
    23    10    87 2   
    24    11    12 ar  
    25    11    13 ar  
    26    11    57 1   
    27    12    32 ar  
    28    12    58 1   
    29    13    36 ar  
    30    13    59 1   
    31    14    16 ar  
    32    14    33 ar  
    33    14    60 1   
    34    15    17 ar  
    35    15    33 ar  
    36    15    61 1   
    37    16    34 ar  
    38    16    62 1   
    39    17    34 ar  
    40    17    63 1   
    41    18    19 ar  
    42    18    35 ar  
    43    18    64 1   
    44    19    65 1   
    45    20    32 ar  
    46    20    36 ar  
    47    20    66 1   
    48    21    37 1   
    49    21    38 2   
    50    21    67 1   
    51    22    35 ar  
    52    22    68 1   
    53    23    24 1   
    54    23    69 1   
    55    23    70 1   
    56    23    87 1   
    57    24    40 1   
    58    24    71 1   
    59    24    72 1   
    60    25    27 1   
    61    25    39 1   
    62    25    73 1   
    63    25    74 1   
    64    26    28 1   
    65    26    39 1   
    66    26    75 1   
    67    26    76 1   
    68    27    40 1   
    69    27    77 1   
    70    27    78 1   
    71    28    40 1   
    72    28    79 1   
    73    28    80 1   
    74    29    37 2   
    75    29    41 1   
    76    30    34 1   
    77    30    83 1   
    78    31    86 1   
    79    31    89 2   
    80    31    90 1   
    81    32    92 1   
    82    33    86 1   
    83    35    85 1   
    84    36    41 1   
    85    37    91 1   
    86    38    41 1   
    87    38    90 1   
    88    39    88 1   
    89    43    88 1   
    90    44    88 1   
    91    45    88 1   
    92    55    92 1   
    93    56    92 1   
    94    81    85 1   
    95    82    86 1   
    96    84    90 1   
    97    85    87 1   
@<TRIPOS>SUBSTRUCTURE
     1 AQM         1 TEMP              0 ****  ****    0 ROOT
