@<TRIPOS>MOLECULE
AQN
   27    29     1     0     0
SMALL
abcg2


@<TRIPOS>ATOM
      1 C1          -1.1620    -0.6830    -0.0660 ca         1 AQN       0.022000
      2 C2           0.1640    -0.2670    -0.0070 ca         1 AQN      -0.171600
      3 C3           1.2380    -1.2900    -0.0030 c          1 AQN       0.590300
      4 O3           0.9750    -2.4730    -0.0580 o          1 AQN      -0.520100
      5 C4           2.6410    -0.8180     0.0730 ca         1 AQN      -0.119600
      6 C5           3.6710    -1.7530     0.0920 ca         1 AQN      -0.076000
      7 C6           4.9890    -1.3350     0.1630 ca         1 AQN      -0.109000
      8 C7           5.2890     0.0220     0.2160 ca         1 AQN      -0.113000
      9 C8           4.2700     0.9590     0.1970 ca         1 AQN      -0.076000
     10 C9           2.9420     0.5470     0.1250 ca         1 AQN      -0.126600
     11 C10          1.8700     1.5700     0.1070 c          1 AQN       0.593300
     12 O10          2.1290     2.7540     0.1440 o          1 AQN      -0.536100
     13 C11          0.4660     1.0970     0.0460 ca         1 AQN      -0.133600
     14 C12         -0.5670     2.0280     0.0370 ca         1 AQN      -0.099000
     15 C13         -1.8850     1.6110    -0.0170 ca         1 AQN      -0.015000
     16 C14         -2.1820     0.2540    -0.0680 ca         1 AQN      -0.202500
     17 S15         -3.8940    -0.2930    -0.0590 s6         1 AQN       1.260100
     18 OS1         -4.6470     0.7910    -0.7070 o          1 AQN      -0.686200
     19 OS2         -3.9010    -1.5560    -0.8120 o          1 AQN      -0.686200
     20 OS3         -4.2040    -0.4570     1.3690 o          1 AQN      -0.686200
     21 H1          -1.3870    -1.7390    -0.1190 ha         1 AQN       0.154000
     22 H5           3.4420    -2.8090     0.0520 ha         1 AQN       0.135000
     23 H6           5.7850    -2.0660     0.1780 ha         1 AQN       0.109000
     24 H7           6.3190     0.3470     0.2730 ha         1 AQN       0.108000
     25 H8           4.5040     2.0140     0.2380 ha         1 AQN       0.131000
     26 H12         -0.3430     3.0860     0.0730 ha         1 AQN       0.119000
     27 H13         -2.6780     2.3460    -0.0290 ha         1 AQN       0.137000
@<TRIPOS>BOND
     1     1     2 ar  
     2     1    16 ar  
     3     1    21 1   
     4     2     3 1   
     5     2    13 ar  
     6     3     4 2   
     7     3     5 1   
     8     5     6 ar  
     9     5    10 ar  
    10     6     7 ar  
    11     6    22 1   
    12     7     8 ar  
    13     7    23 1   
    14     8     9 ar  
    15     8    24 1   
    16     9    10 ar  
    17     9    25 1   
    18    10    11 1   
    19    11    12 2   
    20    11    13 1   
    21    13    14 ar  
    22    14    15 ar  
    23    14    26 1   
    24    15    16 ar  
    25    15    27 1   
    26    16    17 1   
    27    17    18 1   
    28    17    19 1   
    29    17    20 1   
@<TRIPOS>SUBSTRUCTURE
     1 AQN         1 TEMP              0 ****  ****    0 ROOT
