@<TRIPOS>MOLECULE
AQN
   27    29     1     0     0
SMALL
No Charge or Current Charge


@<TRIPOS>ATOM
      1 C1          -1.2070    -0.6830    -0.0310 ca         1 AQN       0.022000
      2 C2           0.1440    -0.2690     0.0200 ca         1 AQN      -0.171600
      3 C3           1.2380    -1.3080     0.0350 c          1 AQN       0.590300
      4 O3           0.9710    -2.5050     0.0050 o          1 AQN      -0.520100
      5 C4           2.6710    -0.8300     0.0890 ca         1 AQN      -0.119600
      6 C5           3.7250    -1.7740     0.1030 ca         1 AQN      -0.076000
      7 C6           5.0630    -1.3550     0.1530 ca         1 AQN      -0.109000
      8 C7           5.3680     0.0120     0.1890 ca         1 AQN      -0.113000
      9 C8           4.3340     0.9610     0.1760 ca         1 AQN      -0.076000
     10 C9           2.9800     0.5540     0.1260 ca         1 AQN      -0.126600
     11 C10          1.8840     1.5960     0.1120 c          1 AQN       0.593300
     12 O10          2.1490     2.7940     0.1450 o          1 AQN      -0.536100
     13 C11          0.4510     1.1150     0.0580 ca         1 AQN      -0.133600
     14 C12         -0.6060     2.0520     0.0470 ca         1 AQN      -0.099000
     15 C13         -1.9440     1.6310    -0.0040 ca         1 AQN      -0.015000
     16 C14         -2.2540     0.2590    -0.0500 ca         1 AQN      -0.202500
     17 S15         -4.0120    -0.3130    -0.1050 s6         1 AQN       1.260100
     18 OS1         -4.6990     0.8350    -0.7170 o          1 AQN      -0.686200
     19 OS2         -3.9140    -1.5290    -0.9260 o          1 AQN      -0.686200
     20 OS3         -4.2850    -0.5320     1.3240 o          1 AQN      -0.686200
     21 H1          -1.4490    -1.7440    -0.0550 ha         1 AQN       0.154000
     22 H5           3.5090    -2.8410     0.0760 ha         1 AQN       0.135000
     23 H6           5.8640    -2.0920     0.1630 ha         1 AQN       0.109000
     24 H7           6.4050     0.3380     0.2280 ha         1 AQN       0.108000
     25 H8           4.5910     2.0180     0.2040 ha         1 AQN       0.131000
     26 H12         -0.3960     3.1190     0.0790 ha         1 AQN       0.119000
     27 H13         -2.7370     2.3760    -0.0050 ha         1 AQN       0.137000
@<TRIPOS>BOND
     1     1     2 ar  
     2     1    16 ar  
     3     1    21 1   
     4     2     3 1   
     5     2    13 ar  
     6     3     4 2   
     7     3     5 1   
     8     5     6 ar  
     9     5    10 ar  
    10     6     7 ar  
    11     6    22 1   
    12     7     8 ar  
    13     7    23 1   
    14     8     9 ar  
    15     8    24 1   
    16     9    10 ar  
    17     9    25 1   
    18    10    11 1   
    19    11    12 2   
    20    11    13 1   
    21    13    14 ar  
    22    14    15 ar  
    23    14    26 1   
    24    15    16 ar  
    25    15    27 1   
    26    16    17 1   
    27    17    18 1   
    28    17    19 1   
    29    17    20 1   
@<TRIPOS>SUBSTRUCTURE
     1 AQN         1 TEMP              0 ****  ****    0 ROOT
