@<TRIPOS>MOLECULE
AQO
   19    20     1     0     0
SMALL
No Charge or Current Charge


@<TRIPOS>ATOM
      1 C1          -0.2590    -0.0760    -2.9650 ca         1 AQO      -0.153000
      2 C2           1.1340    -0.0600    -2.8030 ca         1 AQO      -0.064000
      3 C3           1.6870    -0.0150    -1.5120 ca         1 AQO      -0.126000
      4 C4           0.8680     0.0150    -0.3680 ca         1 AQO       0.233400
      5 N5           1.5000     0.0590     0.8870 nc         1 AQO      -0.714100
      6 C6           0.6350     0.0810     1.8690 cd         1 AQO       0.726800
      7 N7           1.1800     0.1150     3.0720 nv         1 AQO      -1.051200
      8 N8          -0.7030     0.0700     1.8190 ns         1 AQO      -0.453400
      9 C9          -1.3950     0.0320     0.6640 c          1 AQO       0.591600
     10 O10         -2.6160     0.0280     0.6370 o          1 AQO      -0.541000
     11 C11         -0.5330    -0.0020    -0.5440 ca         1 AQO      -0.235600
     12 C12         -1.0950    -0.0470    -1.8380 ca         1 AQO      -0.028000
     13 HC1         -0.6920    -0.1110    -3.9620 ha         1 AQO       0.118000
     14 HC2          1.7850    -0.0830    -3.6740 ha         1 AQO       0.113000
     15 HC3          2.7680    -0.0030    -1.3950 ha         1 AQO       0.129000
     16 H71          2.1760    -0.0650     3.0580 hn         1 AQO       0.499000
     17 H72          0.6720    -0.3360     3.8220 hn         1 AQO       0.499000
     18 H8          -1.2440     0.1150     2.6660 hn         1 AQO       0.323500
     19 H12         -2.1750    -0.0590    -1.9710 ha         1 AQO       0.131000
@<TRIPOS>BOND
     1     1     2 ar  
     2     1    12 ar  
     3     1    13 1   
     4     2     3 ar  
     5     2    14 1   
     6     3     4 ar  
     7     3    15 1   
     8     4     5 1   
     9     4    11 ar  
    10     5     6 2   
    11     6     7 1   
    12     6     8 1   
    13     7    16 1   
    14     7    17 1   
    15     8     9 1   
    16     8    18 1   
    17     9    10 2   
    18     9    11 1   
    19    11    12 ar  
    20    12    19 1   
@<TRIPOS>SUBSTRUCTURE
     1 AQO         1 TEMP              0 ****  ****    0 ROOT
