@<TRIPOS>MOLECULE
AQO
   19    20     1     0     0
SMALL
abcg2


@<TRIPOS>ATOM
      1 C1          -0.2780    -0.0500    -2.9650 ca         1 AQO      -0.153000
      2 C2           1.1130    -0.0540    -2.7980 ca         1 AQO      -0.064000
      3 C3           1.6770    -0.0370    -1.5420 ca         1 AQO      -0.126000
      4 C4           0.8650    -0.0160    -0.3950 ca         1 AQO       0.233400
      5 N5           1.4600    -0.0020     0.8340 nc         1 AQO      -0.714100
      6 C6           0.6870     0.0240     1.8760 cd         1 AQO       0.726800
      7 N7           1.2060     0.0810     3.1120 nv         1 AQO      -1.051200
      8 N8          -0.6790     0.0330     1.7910 ns         1 AQO      -0.453400
      9 C9          -1.3820     0.0140     0.6070 c          1 AQO       0.591600
     10 O10         -2.6010     0.0200     0.6060 o          1 AQO      -0.541000
     11 C11         -0.5310    -0.0110    -0.5730 ca         1 AQO      -0.235600
     12 C12         -1.0910    -0.0290    -1.8540 ca         1 AQO      -0.028000
     13 HC1         -0.7070    -0.0640    -3.9580 ha         1 AQO       0.118000
     14 HC2          1.7560    -0.0710    -3.6680 ha         1 AQO       0.113000
     15 HC3          2.7520    -0.0410    -1.4180 ha         1 AQO       0.129000
     16 H71          2.1970    -0.0620     3.2080 hn         1 AQO       0.499000
     17 H72          0.6430    -0.1180     3.9210 hn         1 AQO       0.499000
     18 H8          -1.2270     0.0660     2.6420 hn         1 AQO       0.323500
     19 H12         -2.1670    -0.0260    -1.9630 ha         1 AQO       0.131000
@<TRIPOS>BOND
     1     1     2 ar  
     2     1    12 ar  
     3     1    13 1   
     4     2     3 ar  
     5     2    14 1   
     6     3     4 ar  
     7     3    15 1   
     8     4     5 1   
     9     4    11 ar  
    10     5     6 2   
    11     6     7 1   
    12     6     8 1   
    13     7    16 1   
    14     7    17 1   
    15     8     9 1   
    16     8    18 1   
    17     9    10 2   
    18     9    11 1   
    19    11    12 ar  
    20    12    19 1   
@<TRIPOS>SUBSTRUCTURE
     1 AQO         1 TEMP              0 ****  ****    0 ROOT
