@<TRIPOS>MOLECULE
AQQ
   28    27     1     0     0
SMALL
No Charge or Current Charge


@<TRIPOS>ATOM
      1 O            2.4610    -2.5580     0.6700 o          1 AQQ      -0.765000
      2 C            2.7680    -1.3930     0.4420 c          1 AQQ       0.719000
      3 CA           1.7910    -0.4940    -0.4250 c3         1 AQQ       0.055500
      4 CB           1.6960    -1.0450    -1.8720 c3         1 AQQ      -0.102100
      5 N            0.4130    -0.3320     0.1700 n7         1 AQQ      -0.843400
      6 CAN         -0.5150     0.6730    -0.4660 c3         1 AQQ       0.062500
      7 CAL          0.0320     2.1680    -0.5140 c          1 AQQ       0.720000
      8 OAF          0.4260     2.6090    -1.5880 o          1 AQQ      -0.748000
      9 OAD          0.0210     2.8460     0.5090 o          1 AQQ      -0.748000
     10 CAI         -1.9020     0.6080     0.2310 c3         1 AQQ      -0.058400
     11 CAH         -2.6580    -0.7290     0.0260 c3         1 AQQ      -0.084400
     12 CAG         -4.0560    -0.7280     0.6790 c3         1 AQQ       0.142800
     13 NAB         -4.7580    -2.0050     0.4640 n8         1 AQQ      -1.001200
     14 OXT          3.7860    -0.8810     0.8930 o          1 AQQ      -0.765000
     15 H1           2.2790     0.4890    -0.4840 h1         1 AQQ       0.070700
     16 H2           2.7000    -1.2170    -2.2760 hc         1 AQQ       0.010033
     17 H3           1.1520    -1.9970    -1.8960 hc         1 AQQ       0.010033
     18 H4           1.1910    -0.3380    -2.5390 hc         1 AQQ       0.010033
     19 H5          -0.0420    -1.2510     0.1630 hn         1 AQQ       0.398000
     20 H7          -0.6880     0.3750    -1.5080 h1         1 AQQ      -0.011300
     21 H9          -1.7850     0.8010     1.3050 hc         1 AQQ       0.031700
     22 H10         -2.5250     1.4190    -0.1660 hc         1 AQQ       0.031700
     23 H11         -2.7620    -0.9200    -1.0500 hc         1 AQQ       0.045200
     24 H12         -2.0680    -1.5530     0.4450 hc         1 AQQ       0.045200
     25 H13         -3.9600    -0.5590     1.7600 h1         1 AQQ       0.015700
     26 H14         -4.6650     0.0810     0.2520 h1         1 AQQ       0.015700
     27 H15         -4.2330    -2.7540     0.9290 hn         1 AQQ       0.372500
     28 H16         -5.6510    -1.9820     0.9710 hn         1 AQQ       0.372500
@<TRIPOS>BOND
     1     1     2 1   
     2     2     3 1   
     3     2    14 1   
     4     3     4 1   
     5     3     5 1   
     6     3    15 1   
     7     4    16 1   
     8     4    17 1   
     9     4    18 1   
    10     5     6 1   
    11     5    19 1   
    12     6     7 1   
    13     6    10 1   
    14     6    20 1   
    15     7     8 1   
    16     7     9 1   
    17    10    11 1   
    18    10    21 1   
    19    10    22 1   
    20    11    12 1   
    21    11    23 1   
    22    11    24 1   
    23    12    13 1   
    24    12    25 1   
    25    12    26 1   
    26    13    27 1   
    27    13    28 1   
@<TRIPOS>SUBSTRUCTURE
     1 AQQ         1 TEMP              0 ****  ****    0 ROOT
