@<TRIPOS>MOLECULE
AQQ
   28    27     1     0     0
SMALL
abcg2


@<TRIPOS>ATOM
      1 O            1.7610    -2.5210     0.8510 o          1 AQQ      -0.765000
      2 C            2.4660    -1.5940     0.3990 c          1 AQQ       0.719000
      3 CA           1.7390    -0.4320    -0.3130 c3         1 AQQ       0.055500
      4 CB           1.8720    -0.6530    -1.8280 c3         1 AQQ      -0.102100
      5 N            0.3790    -0.3180     0.1800 n7         1 AQQ      -0.843400
      6 CAN         -0.5200     0.5310    -0.5710 c3         1 AQQ       0.062500
      7 CAL         -0.0170     1.9890    -0.6520 c          1 AQQ       0.720000
      8 OAF         -0.2170     2.5850    -1.7320 o          1 AQQ      -0.748000
      9 OAD          0.5000     2.4760     0.3720 o          1 AQQ      -0.748000
     10 CAI         -1.8990     0.5410     0.0970 c3         1 AQQ      -0.058400
     11 CAH         -2.5960    -0.8150     0.1250 c3         1 AQQ      -0.084400
     12 CAG         -4.0190    -0.7220     0.6540 c3         1 AQQ       0.142800
     13 NAB         -4.6590    -2.0310     0.6670 n8         1 AQQ      -1.001200
     14 OXT          3.7120    -1.5360     0.4230 o          1 AQQ      -0.765000
     15 H1           2.2700     0.4930    -0.0700 h1         1 AQQ       0.070700
     16 H2           2.9220    -0.7510    -2.1070 hc         1 AQQ       0.010033
     17 H3           1.3550    -1.5650    -2.1380 hc         1 AQQ       0.010033
     18 H4           1.4580     0.1780    -2.3990 hc         1 AQQ       0.010033
     19 H5           0.0060    -1.2560     0.2510 hn         1 AQQ       0.398000
     20 H7          -0.6710     0.1790    -1.6050 h1         1 AQQ      -0.011300
     21 H9          -1.7970     0.9280     1.1150 hc         1 AQQ       0.031700
     22 H10         -2.5360     1.2470    -0.4470 hc         1 AQQ       0.031700
     23 H11         -2.6190    -1.2410    -0.8830 hc         1 AQQ       0.045200
     24 H12         -2.0380    -1.5200     0.7510 hc         1 AQQ       0.045200
     25 H13         -4.0000    -0.2340     1.6400 h1         1 AQQ       0.015700
     26 H14         -4.5990    -0.0650     0.0010 h1         1 AQQ       0.015700
     27 H15         -4.1950    -2.6210     1.3470 hn         1 AQQ       0.372500
     28 H16         -5.6110    -1.9380     0.9960 hn         1 AQQ       0.372500
@<TRIPOS>BOND
     1     1     2 1   
     2     2     3 1   
     3     2    14 1   
     4     3     4 1   
     5     3     5 1   
     6     3    15 1   
     7     4    16 1   
     8     4    17 1   
     9     4    18 1   
    10     5     6 1   
    11     5    19 1   
    12     6     7 1   
    13     6    10 1   
    14     6    20 1   
    15     7     8 1   
    16     7     9 1   
    17    10    11 1   
    18    10    21 1   
    19    10    22 1   
    20    11    12 1   
    21    11    23 1   
    22    11    24 1   
    23    12    13 1   
    24    12    25 1   
    25    12    26 1   
    26    13    27 1   
    27    13    28 1   
@<TRIPOS>SUBSTRUCTURE
     1 AQQ         1 TEMP              0 ****  ****    0 ROOT
