@<TRIPOS>MOLECULE
AQR
   70    74     1     0     0
SMALL
No Charge or Current Charge


@<TRIPOS>ATOM
      1 C1         -67.8100    91.4040    14.5910 cc         1 AQR      -0.331200
      2 C10        -67.6080    92.7460    14.8650 cd         1 AQR       0.042800
      3 C11        -70.1150    93.1770    14.8930 c6         1 AQR      -0.060400
      4 C12        -71.2600    94.2160    15.0010 c6         1 AQR      -0.076400
      5 C13        -70.8730    95.6270    14.4320 c6         1 AQR      -0.004000
      6 C14        -69.6580    96.1610    15.3090 c6         1 AQR      -0.006800
      7 C15        -69.2810    97.5820    14.7480 c6         1 AQR      -0.061400
      8 C16        -70.4190    98.6230    14.8870 c6         1 AQR      -0.064400
      9 C17        -71.8170    98.1940    14.3220 c6         1 AQR      -0.031000
     10 C18        -72.1180    96.6400    14.5420 c6         1 AQR      -0.017700
     11 C19        -73.4530    96.2260    13.7980 c6         1 AQR      -0.039400
     12 C2         -66.7920    90.5230    14.0460 c          1 AQR       0.550500
     13 C20        -73.6830    96.7790    12.2670 c6         1 AQR      -0.174000
     14 C21        -73.2790    98.3130    12.1610 c6         1 AQR      -0.040400
     15 C22        -71.9120    98.6290    12.8160 c6         1 AQR      -0.054400
     16 C24        -68.6800    93.3090    17.0160 c3         1 AQR      -0.080100
     17 C25        -69.9830    96.3610    16.8420 c3         1 AQR      -0.081100
     18 C26        -70.4060    95.3980    12.9450 c3         1 AQR      -0.102100
     19 C27        -72.8710    99.0360    15.1320 c3         1 AQR      -0.082100
     20 C28        -72.9290    95.9010    11.1800 c          1 AQR       0.723000
     21 C29        -75.2170    96.6990    11.8490 c3         1 AQR      -0.062100
     22 C3         -65.4620    91.1350    13.8100 cc         1 AQR      -0.007100
     23 C4         -65.1820    92.4650    14.0840 cd         1 AQR      -0.074200
     24 C5         -66.2750    93.2730    14.6230 cd         1 AQR      -0.097000
     25 C6         -66.0760    94.6050    14.9120 ce         1 AQR      -0.076000
     26 C7         -67.1820    95.5430    15.0320 ce         1 AQR      -0.261000
     27 C8         -68.4590    95.1450    15.2510 c2         1 AQR       0.009600
     28 C9         -68.7320    93.6190    15.4830 c6         1 AQR       0.011400
     29 O2         -67.0230    89.3420    13.8050 o          1 AQR      -0.583100
     30 O28        -72.3820    96.4710    10.2460 o          1 AQR      -0.734000
     31 O29        -73.2740    94.7310    11.0820 o          1 AQR      -0.734000
     32 O3         -64.5470    90.2610    13.3030 oh         1 AQR      -0.538100
     33 H1         -68.7520    90.9060    14.7770 ha         1 AQR       0.205000
     34 H2         -70.4520    92.2520    15.3810 hc         1 AQR       0.052200
     35 H3         -69.9890    92.9060    13.8360 hc         1 AQR       0.052200
     36 H4         -72.1090    93.7950    14.4500 hc         1 AQR       0.050700
     37 H5         -71.6090    94.2870    16.0370 hc         1 AQR       0.050700
     38 H6         -68.4320    97.9940    15.3080 hc         1 AQR       0.036700
     39 H7         -70.5000    98.9140    15.9420 hc         1 AQR       0.024700
     40 H8         -72.4020    96.5560    15.5990 hc         1 AQR       0.011700
     41 H9         -73.6100    95.1440    13.8140 hc         1 AQR       0.026200
     42 H10        -74.2880    96.6070    14.4020 hc         1 AQR       0.026200
     43 H11        -73.2770    98.6530    11.1170 hc         1 AQR       0.025200
     44 H12        -74.0520    98.9290    12.6380 hc         1 AQR       0.025200
     45 H13        -71.7610    99.7160    12.7500 hc         1 AQR       0.035200
     46 H14        -71.0990    98.2170    12.2150 hc         1 AQR       0.035200
     47 H15        -63.3540    93.4200    14.7590 hc         1 AQR       0.041033
     48 H16        -63.0980    92.3260    13.4050 hc         1 AQR       0.041033
     49 H17        -63.8550    93.8880    13.1220 hc         1 AQR       0.041033
     50 H18        -69.6280    93.4990    17.5250 hc         1 AQR       0.039700
     51 H19        -68.4640    92.2500    17.2000 hc         1 AQR       0.039700
     52 H20        -67.8950    93.8880    17.5170 hc         1 AQR       0.039700
     53 H21        -69.0950    96.7180    17.3770 hc         1 AQR       0.031700
     54 H22        -70.7790    97.0830    17.0370 hc         1 AQR       0.031700
     55 H23        -70.3130    95.4570    17.3470 hc         1 AQR       0.031700
     56 H24        -70.3710    96.3040    12.3480 hc         1 AQR       0.054700
     57 H25        -69.3990    94.9730    12.8770 hc         1 AQR       0.054700
     58 H26        -71.0550    94.6840    12.4330 hc         1 AQR       0.054700
     59 H27        -73.9070    98.8230    14.8510 hc         1 AQR       0.023367
     60 H28        -72.8000    98.8380    16.2090 hc         1 AQR       0.023367
     61 H29        -72.7140   100.1130    14.9930 hc         1 AQR       0.023367
     62 H30        -75.3710    97.0330    10.8160 hc         1 AQR       0.016033
     63 H31        -75.6040    95.6770    11.9340 hc         1 AQR       0.016033
     64 H32        -75.8370    97.3290    12.4980 hc         1 AQR       0.016033
     65 H33        -65.0840    95.0350    14.7830 ha         1 AQR       0.174000
     66 H34        -66.9020    96.5860    14.9030 ha         1 AQR       0.186000
     67 H36        -65.0160    89.3970    13.2130 ho         1 AQR       0.482000
     68 H37        -68.9490    97.5260    13.7040 hc         1 AQR       0.036700
     69 H38        -70.0940    99.5530    14.3990 hc         1 AQR       0.024700
     70 C23        -63.8010    93.0510    13.8290 c3         1 AQR      -0.040900
@<TRIPOS>BOND
     1     1     2 2   
     2     1    12 1   
     3     1    33 1   
     4     2    24 1   
     5     2    28 1   
     6     3     4 1   
     7     3    28 1   
     8     3    34 1   
     9     3    35 1   
    10     4     5 1   
    11     4    36 1   
    12     4    37 1   
    13     5     6 1   
    14     5    10 1   
    15     5    18 1   
    16     6     7 1   
    17     6    17 1   
    18     6    27 1   
    19     7     8 1   
    20     7    38 1   
    21     7    68 1   
    22     8     9 1   
    23     8    39 1   
    24     8    69 1   
    25     9    10 1   
    26     9    15 1   
    27     9    19 1   
    28    10    11 1   
    29    10    40 1   
    30    11    13 1   
    31    11    41 1   
    32    11    42 1   
    33    12    22 1   
    34    12    29 2   
    35    13    14 1   
    36    13    20 1   
    37    13    21 1   
    38    14    15 1   
    39    14    43 1   
    40    14    44 1   
    41    15    45 1   
    42    15    46 1   
    43    16    28 1   
    44    16    50 1   
    45    16    51 1   
    46    16    52 1   
    47    17    53 1   
    48    17    54 1   
    49    17    55 1   
    50    18    56 1   
    51    18    57 1   
    52    18    58 1   
    53    19    59 1   
    54    19    60 1   
    55    19    61 1   
    56    20    30 1   
    57    20    31 1   
    58    21    62 1   
    59    21    63 1   
    60    21    64 1   
    61    22    23 2   
    62    22    32 1   
    63    23    24 1   
    64    23    70 1   
    65    24    25 2   
    66    25    26 1   
    67    25    65 1   
    68    26    27 2   
    69    26    66 1   
    70    27    28 1   
    71    32    67 1   
    72    47    70 1   
    73    48    70 1   
    74    49    70 1   
@<TRIPOS>SUBSTRUCTURE
     1 AQR         1 TEMP              0 ****  ****    0 ROOT
