@<TRIPOS>MOLECULE
AQR
   70    74     1     0     0
SMALL
abcg2


@<TRIPOS>ATOM
      1 C1         -67.8810    91.4740    14.4500 cc         1 AQR      -0.331200
      2 C10        -67.6560    92.7890    14.6980 cd         1 AQR       0.042800
      3 C11        -70.1290    93.2480    14.6770 c6         1 AQR      -0.060400
      4 C12        -71.2410    94.2690    14.8450 c6         1 AQR      -0.076400
      5 C13        -70.8520    95.6650    14.3370 c6         1 AQR      -0.004000
      6 C14        -69.6520    96.1670    15.2100 c6         1 AQR      -0.006800
      7 C15        -69.2450    97.5510    14.6820 c6         1 AQR      -0.061400
      8 C16        -70.3690    98.5710    14.8080 c6         1 AQR      -0.064400
      9 C17        -71.7740    98.1500    14.3260 c6         1 AQR      -0.031000
     10 C18        -72.0630    96.6290    14.5100 c6         1 AQR      -0.017700
     11 C19        -73.3740    96.2360    13.7770 c6         1 AQR      -0.039400
     12 C2         -66.8150    90.5780    14.0950 c          1 AQR       0.550500
     13 C20        -73.6800    96.7730    12.3640 c6         1 AQR      -0.174000
     14 C21        -73.3290    98.2580    12.2930 c6         1 AQR      -0.040400
     15 C22        -71.9600    98.5890    12.8630 c6         1 AQR      -0.054400
     16 C24        -68.7320    93.3450    16.7790 c3         1 AQR      -0.080100
     17 C25        -70.0020    96.3360    16.7040 c3         1 AQR      -0.081100
     18 C26        -70.3860    95.5140    12.8810 c3         1 AQR      -0.102100
     19 C27        -72.7690    98.9380    15.1950 c3         1 AQR      -0.082100
     20 C28        -73.0350    95.9380    11.2190 c          1 AQR       0.723000
     21 C29        -75.1970    96.6300    12.1480 c3         1 AQR      -0.062100
     22 C3         -65.4590    91.1330    14.0250 cc         1 AQR      -0.007100
     23 C4         -65.2040    92.4400    14.2560 cd         1 AQR      -0.074200
     24 C5         -66.3160    93.3130    14.5790 cd         1 AQR      -0.097000
     25 C6         -66.1520    94.6590    14.7120 ce         1 AQR      -0.076000
     26 C7         -67.2360    95.5680    14.8950 ce         1 AQR      -0.261000
     27 C8         -68.5080    95.1610    15.0910 c2         1 AQR       0.009600
     28 C9         -68.7640    93.6720    15.2550 c6         1 AQR       0.011400
     29 O2         -66.9730    89.3770    13.8530 o          1 AQR      -0.583100
     30 O28        -72.4590    96.5460    10.2950 o          1 AQR      -0.734000
     31 O29        -73.2090    94.7000    11.2790 o          1 AQR      -0.734000
     32 O3         -64.4990    90.2500    13.7040 oh         1 AQR      -0.538100
     33 H1         -68.8700    91.0430    14.5290 ha         1 AQR       0.205000
     34 H2         -70.4370    92.3110    15.1450 hc         1 AQR       0.052200
     35 H3         -70.0060    93.0280    13.6150 hc         1 AQR       0.052200
     36 H4         -72.1000    93.8970    14.2830 hc         1 AQR       0.050700
     37 H5         -71.5690    94.3200    15.8860 hc         1 AQR       0.050700
     38 H6         -68.3950    97.9400    15.2480 hc         1 AQR       0.036700
     39 H7         -70.4320    98.8810    15.8540 hc         1 AQR       0.024700
     40 H8         -72.3260    96.5080    15.5690 hc         1 AQR       0.011700
     41 H9         -73.4940    95.1530    13.7690 hc         1 AQR       0.026200
     42 H10        -74.1860    96.5950    14.4190 hc         1 AQR       0.026200
     43 H11        -73.3940    98.6040    11.2600 hc         1 AQR       0.025200
     44 H12        -74.0860    98.8260    12.8440 hc         1 AQR       0.025200
     45 H13        -71.8070    99.6730    12.8160 hc         1 AQR       0.035200
     46 H14        -71.1850    98.1560    12.2290 hc         1 AQR       0.035200
     47 H15        -63.5310    93.5140    15.0850 hc         1 AQR       0.041033
     48 H16        -63.0790    92.2200    13.9880 hc         1 AQR       0.041033
     49 H17        -63.7270    93.7220    13.3520 hc         1 AQR       0.041033
     50 H18        -69.5770    93.7820    17.3040 hc         1 AQR       0.039700
     51 H19        -68.7890    92.2640    16.9090 hc         1 AQR       0.039700
     52 H20        -67.8140    93.7000    17.2470 hc         1 AQR       0.039700
     53 H21        -69.1020    96.5900    17.2660 hc         1 AQR       0.031700
     54 H22        -70.7190    97.1380    16.8640 hc         1 AQR       0.031700
     55 H23        -70.4350    95.4510    17.1600 hc         1 AQR       0.031700
     56 H24        -70.3570    96.4520    12.3370 hc         1 AQR       0.054700
     57 H25        -69.3840    95.0850    12.8140 hc         1 AQR       0.054700
     58 H26        -71.0550    94.8500    12.3390 hc         1 AQR       0.054700
     59 H27        -73.8120    98.7430    14.9480 hc         1 AQR       0.023367
     60 H28        -72.6340    98.6920    16.2510 hc         1 AQR       0.023367
     61 H29        -72.6050   100.0130    15.0850 hc         1 AQR       0.023367
     62 H30        -75.4910    96.9790    11.1550 hc         1 AQR       0.016033
     63 H31        -75.5190    95.5930    12.2450 hc         1 AQR       0.016033
     64 H32        -75.7500    97.2230    12.8800 hc         1 AQR       0.016033
     65 H33        -65.1640    95.0900    14.6160 ha         1 AQR       0.174000
     66 H34        -66.9890    96.6180    14.8360 ha         1 AQR       0.186000
     67 H36        -64.9400    89.3930    13.5840 ho         1 AQR       0.482000
     68 H37        -68.9050    97.4680    13.6470 hc         1 AQR       0.036700
     69 H38        -70.0760    99.4780    14.2690 hc         1 AQR       0.024700
     70 C23        -63.8150    92.9990    14.1650 c3         1 AQR      -0.040900
@<TRIPOS>BOND
     1     1     2 2   
     2     1    12 1   
     3     1    33 1   
     4     2    24 1   
     5     2    28 1   
     6     3     4 1   
     7     3    28 1   
     8     3    34 1   
     9     3    35 1   
    10     4     5 1   
    11     4    36 1   
    12     4    37 1   
    13     5     6 1   
    14     5    10 1   
    15     5    18 1   
    16     6     7 1   
    17     6    17 1   
    18     6    27 1   
    19     7     8 1   
    20     7    38 1   
    21     7    68 1   
    22     8     9 1   
    23     8    39 1   
    24     8    69 1   
    25     9    10 1   
    26     9    15 1   
    27     9    19 1   
    28    10    11 1   
    29    10    40 1   
    30    11    13 1   
    31    11    41 1   
    32    11    42 1   
    33    12    22 1   
    34    12    29 2   
    35    13    14 1   
    36    13    20 1   
    37    13    21 1   
    38    14    15 1   
    39    14    43 1   
    40    14    44 1   
    41    15    45 1   
    42    15    46 1   
    43    16    28 1   
    44    16    50 1   
    45    16    51 1   
    46    16    52 1   
    47    17    53 1   
    48    17    54 1   
    49    17    55 1   
    50    18    56 1   
    51    18    57 1   
    52    18    58 1   
    53    19    59 1   
    54    19    60 1   
    55    19    61 1   
    56    20    30 1   
    57    20    31 1   
    58    21    62 1   
    59    21    63 1   
    60    21    64 1   
    61    22    23 2   
    62    22    32 1   
    63    23    24 1   
    64    23    70 1   
    65    24    25 2   
    66    25    26 1   
    67    25    65 1   
    68    26    27 2   
    69    26    66 1   
    70    27    28 1   
    71    32    67 1   
    72    47    70 1   
    73    48    70 1   
    74    49    70 1   
@<TRIPOS>SUBSTRUCTURE
     1 AQR         1 TEMP              0 ****  ****    0 ROOT
