@<TRIPOS>MOLECULE
AQS
   53    55     1     0     0
SMALL
No Charge or Current Charge


@<TRIPOS>ATOM
      1 C1          -0.5850    -2.7140     0.6830 ca         1 AQS      -0.083000
      2 C2           0.5360    -2.2060     1.3550 ca         1 AQS      -0.014000
      3 C3           0.6800    -0.8170     1.5290 ca         1 AQS      -0.293500
      4 C4          -0.3090     0.0540     1.0330 ca         1 AQS       0.002000
      5 C5          -1.4390    -0.4510     0.3520 ca         1 AQS      -0.154600
      6 C6          -2.4790     0.5070    -0.1750 c          1 AQS       0.593300
      7 O6          -2.3540     1.7180    -0.0260 o          1 AQS      -0.523100
      8 C7          -3.6770    -0.0690    -0.8930 ca         1 AQS      -0.151600
      9 C8          -4.6740     0.7980    -1.3980 ca         1 AQS      -0.061000
     10 C9          -5.7960     0.2860    -2.0690 ca         1 AQS      -0.084000
     11 C16         -5.9360    -1.0970    -2.2450 ca         1 AQS      -0.077000
     12 C17         -4.9550    -1.9700    -1.7490 ca         1 AQS      -0.055000
     13 C18         -3.8190    -1.4690    -1.0710 ca         1 AQS      -0.139600
     14 C19         -2.7760    -2.4290    -0.5470 c          1 AQS       0.577300
     15 O19         -2.8980    -3.6390    -0.7030 o          1 AQS      -0.475100
     16 C20         -1.5810    -1.8500     0.1740 ca         1 AQS      -0.062600
     17 S1           2.1230    -0.1490     2.3850 sy         1 AQS       1.176600
     18 O1S          1.6750     1.0640     3.0770 o          1 AQS      -0.507500
     19 O2S          2.8380    -1.2200     3.0850 o          1 AQS      -0.507500
     20 N1           3.1460     0.3610     1.1060 n3         1 AQS      -0.793500
     21 C1A          3.6720     1.7470     1.1920 c3         1 AQS       0.238300
     22 C2A          2.7330     2.8350     0.6190 c3         1 AQS      -0.134900
     23 C3A          3.3030     4.2500     0.7970 c3         1 AQS       0.101600
     24 N3A          2.3590     5.2800     0.2300 nz         1 AQS      -0.973000
     25 C1B          2.8440    -0.1680    -0.2470 c3         1 AQS       0.238300
     26 C2B          4.0180    -0.0610    -1.2430 c3         1 AQS      -0.134900
     27 C3B          3.7330    -0.7870    -2.5670 c3         1 AQS       0.101600
     28 N3B          4.9080    -0.6660    -3.5030 nz         1 AQS      -0.973000
     29 H1          -0.6750    -3.7920     0.5580 ha         1 AQS       0.158000
     30 H2           1.2890    -2.8960     1.7350 ha         1 AQS       0.136000
     31 H4          -0.1960     1.1290     1.1720 ha         1 AQS       0.152000
     32 H8          -4.5840     1.8760    -1.2720 ha         1 AQS       0.140000
     33 H9          -6.5560     0.9640    -2.4530 ha         1 AQS       0.138000
     34 H16         -6.8050    -1.4950    -2.7650 ha         1 AQS       0.140000
     35 H17         -5.0830    -3.0410    -1.8960 ha         1 AQS       0.149000
     36 HA11         4.6290     1.8110     0.6560 h1         1 AQS       0.070200
     37 HA12         3.9100     1.9970     2.2360 h1         1 AQS       0.070200
     38 HA21         1.7570     2.7800     1.1110 hc         1 AQS       0.079700
     39 HA22         2.5670     2.6500    -0.4490 hc         1 AQS       0.079700
     40 HA31         4.2710     4.3250     0.2880 hx         1 AQS       0.109700
     41 HA32         3.4590     4.4510     1.8640 hx         1 AQS       0.109700
     42 HNA1         2.1800     5.1630    -0.7800 hn         1 AQS       0.520333
     43 HNA2         2.7070     6.2470     0.3320 hn         1 AQS       0.520333
     44 HNA3         1.4300     5.2790     0.6790 hn         1 AQS       0.520333
     45 HB11         2.6000    -1.2370    -0.1740 h1         1 AQS       0.070200
     46 HB12         1.9630     0.3330    -0.6730 h1         1 AQS       0.070200
     47 HB21         4.2290     0.9930    -1.4550 hc         1 AQS       0.079700
     48 HB22         4.9140    -0.4910    -0.7790 hc         1 AQS       0.079700
     49 HB31         3.5340    -1.8470    -2.3690 hx         1 AQS       0.109700
     50 HB32         2.8440    -0.3530    -3.0410 hx         1 AQS       0.109700
     51 HNB1         5.1400     0.3090    -3.7500 hn         1 AQS       0.520333
     52 HNB2         5.7780    -1.0710    -3.1240 hn         1 AQS       0.520333
     53 HNB3         4.7580    -1.1460    -4.4060 hn         1 AQS       0.520333
@<TRIPOS>BOND
     1     1     2 ar  
     2     1    16 ar  
     3     1    29 1   
     4     2     3 ar  
     5     2    30 1   
     6     3     4 ar  
     7     3    17 1   
     8     4     5 ar  
     9     4    31 1   
    10     5     6 1   
    11     5    16 ar  
    12     6     7 2   
    13     6     8 1   
    14     8     9 ar  
    15     8    13 ar  
    16     9    10 ar  
    17     9    32 1   
    18    10    11 ar  
    19    10    33 1   
    20    11    12 ar  
    21    11    34 1   
    22    12    13 ar  
    23    12    35 1   
    24    13    14 1   
    25    14    15 2   
    26    14    16 1   
    27    17    18 2   
    28    17    19 2   
    29    17    20 1   
    30    20    21 1   
    31    20    25 1   
    32    21    22 1   
    33    21    36 1   
    34    21    37 1   
    35    22    23 1   
    36    22    38 1   
    37    22    39 1   
    38    23    24 1   
    39    23    40 1   
    40    23    41 1   
    41    24    42 1   
    42    24    43 1   
    43    24    44 1   
    44    25    26 1   
    45    25    45 1   
    46    25    46 1   
    47    26    27 1   
    48    26    47 1   
    49    26    48 1   
    50    27    28 1   
    51    27    49 1   
    52    27    50 1   
    53    28    51 1   
    54    28    52 1   
    55    28    53 1   
@<TRIPOS>SUBSTRUCTURE
     1 AQS         1 TEMP              0 ****  ****    0 ROOT
