@<TRIPOS>MOLECULE
AQS
   53    55     1     0     0
SMALL
bcc


@<TRIPOS>ATOM
      1 C1          -0.7430    -2.2330    -0.5540 ca         1 AQS      -0.101000
      2 C2           0.4960    -1.9800     0.0060 ca         1 AQS      -0.032000
      3 C3           0.6570    -0.8670     0.8240 ca         1 AQS      -0.293500
      4 C4          -0.4030    -0.0230     1.1020 ca         1 AQS      -0.016000
      5 C5          -1.6430    -0.2750     0.5280 ca         1 AQS      -0.154600
      6 C6          -2.7670     0.6530     0.8160 c          1 AQS       0.593300
      7 O6          -2.6040     1.6190     1.5300 o          1 AQS      -0.523100
      8 C7          -4.0810     0.3510     0.2060 ca         1 AQS      -0.151600
      9 C8          -5.1570     1.1940     0.4660 ca         1 AQS      -0.079000
     10 C9          -6.3960     0.9350    -0.0970 ca         1 AQS      -0.102000
     11 C16         -6.5670    -0.1660    -0.9270 ca         1 AQS      -0.095000
     12 C17         -5.5030    -1.0130    -1.1880 ca         1 AQS      -0.073000
     13 C18         -4.2570    -0.7640    -0.6210 ca         1 AQS      -0.139600
     14 C19         -3.1370    -1.6860    -0.9120 c          1 AQS       0.577300
     15 O19         -3.2830    -2.6620    -1.6150 o          1 AQS      -0.475100
     16 C20         -1.8160    -1.3870    -0.2980 ca         1 AQS      -0.062600
     17 S1           2.2630    -0.5080     1.5110 sy         1 AQS       1.318200
     18 O1S          2.0490     0.3150     2.6870 o          1 AQS      -0.578300
     19 O2S          2.9620    -1.7760     1.6190 o          1 AQS      -0.578300
     20 N1           3.0510     0.3970     0.4030 n3         1 AQS      -0.793500
     21 C1A          2.9700     1.8500     0.4070 c3         1 AQS       0.238300
     22 C2A          1.8570     2.4050    -0.4780 c3         1 AQS      -0.134900
     23 C3A          1.9180     3.9190    -0.4840 c3         1 AQS       0.129800
     24 N3A          0.8600     4.4960    -1.3500 nz         1 AQS      -0.835600
     25 C1B          3.6920    -0.2470    -0.7380 c3         1 AQS       0.238300
     26 C2B          5.1860    -0.4430    -0.5170 c3         1 AQS      -0.134900
     27 C3B          5.8300    -0.9950    -1.7720 c3         1 AQS       0.129800
     28 N3B          7.2900    -1.1830    -1.5780 nz         1 AQS      -0.835600
     29 H1          -0.8740    -3.0980    -1.1890 ha         1 AQS       0.176000
     30 H2           1.3170    -2.6560    -0.1890 ha         1 AQS       0.154000
     31 H4          -0.2840     0.8250     1.7640 ha         1 AQS       0.170000
     32 H8          -5.0270     2.0500     1.1140 ha         1 AQS       0.158000
     33 H9          -7.2280     1.5950     0.1080 ha         1 AQS       0.156000
     34 H16         -7.5340    -0.3630    -1.3720 ha         1 AQS       0.158000
     35 H17         -5.6410    -1.8720    -1.8300 ha         1 AQS       0.167000
     36 HA11         3.9370     2.2200     0.0590 h1         1 AQS       0.070200
     37 HA12         2.8610     2.2060     1.4300 h1         1 AQS       0.070200
     38 HA21         0.8830     2.0780    -0.1090 hc         1 AQS       0.079700
     39 HA22         1.9630     2.0270    -1.4990 hc         1 AQS       0.079700
     40 HA31         2.8690     4.2810    -0.8690 hx         1 AQS       0.109700
     41 HA32         1.7700     4.3330     0.5110 hx         1 AQS       0.109700
     42 HNA1         0.9440     4.1840    -2.3180 hn         1 AQS       0.465133
     43 HNA2         0.9060     5.5140    -1.3620 hn         1 AQS       0.465133
     44 HNA3        -0.0760     4.2450    -1.0340 hn         1 AQS       0.465133
     45 HB11         3.2130    -1.2000    -0.9680 h1         1 AQS       0.070200
     46 HB12         3.5180     0.3850    -1.6110 h1         1 AQS       0.070200
     47 HB21         5.6450     0.5130    -0.2520 hc         1 AQS       0.079700
     48 HB22         5.3430    -1.1290     0.3180 hc         1 AQS       0.079700
     49 HB31         5.4220    -1.9660    -2.0450 hx         1 AQS       0.109700
     50 HB32         5.7120    -0.3210    -2.6180 hx         1 AQS       0.109700
     51 HNB1         7.7650    -0.3040    -1.3790 hn         1 AQS       0.465133
     52 HNB2         7.4930    -1.8160    -0.8040 hn         1 AQS       0.465133
     53 HNB3         7.7310    -1.5790    -2.4080 hn         1 AQS       0.465133
@<TRIPOS>BOND
     1     1     2 ar  
     2     1    16 ar  
     3     1    29 1   
     4     2     3 ar  
     5     2    30 1   
     6     3     4 ar  
     7     3    17 1   
     8     4     5 ar  
     9     4    31 1   
    10     5     6 1   
    11     5    16 ar  
    12     6     7 2   
    13     6     8 1   
    14     8     9 ar  
    15     8    13 ar  
    16     9    10 ar  
    17     9    32 1   
    18    10    11 ar  
    19    10    33 1   
    20    11    12 ar  
    21    11    34 1   
    22    12    13 ar  
    23    12    35 1   
    24    13    14 1   
    25    14    15 2   
    26    14    16 1   
    27    17    18 2   
    28    17    19 2   
    29    17    20 1   
    30    20    21 1   
    31    20    25 1   
    32    21    22 1   
    33    21    36 1   
    34    21    37 1   
    35    22    23 1   
    36    22    38 1   
    37    22    39 1   
    38    23    24 1   
    39    23    40 1   
    40    23    41 1   
    41    24    42 1   
    42    24    43 1   
    43    24    44 1   
    44    25    26 1   
    45    25    45 1   
    46    25    46 1   
    47    26    27 1   
    48    26    47 1   
    49    26    48 1   
    50    27    28 1   
    51    27    49 1   
    52    27    50 1   
    53    28    51 1   
    54    28    52 1   
    55    28    53 1   
@<TRIPOS>SUBSTRUCTURE
     1 AQS         1 TEMP              0 ****  ****    0 ROOT
