@<TRIPOS>MOLECULE
AQT
   56    59     1     0     0
SMALL
No Charge or Current Charge


@<TRIPOS>ATOM
      1 N1          -5.0120     1.4050    -0.0140 na         1 AQT      -0.314600
      2 C1           6.7620    -1.0680     1.5160 c3         1 AQT      -0.035100
      3 N2          -5.0650    -0.6460    -1.0730 nc         1 AQT      -0.579100
      4 C2           7.0000    -0.4100     0.1580 ca         1 AQT      -0.048300
      5 C5           7.5490     0.7550    -2.3580 ca         1 AQT      -0.116000
      6 C6           6.2220     0.6010    -1.9260 ca         1 AQT      -0.091000
      7 C7           5.9250     0.0250    -0.6690 cp         1 AQT      -0.040000
      8 C24          3.8860     0.7910     0.6380 ca         1 AQT       0.126000
      9 C8           4.5010    -0.1230    -0.2550 cp         1 AQT      -0.022000
     10 C4           8.6020     0.3290    -1.5360 ca         1 AQT      -0.102000
     11 C3           8.3280    -0.2520    -0.2880 ca         1 AQT      -0.113000
     12 C            6.5250    -2.5850     1.3980 c3         1 AQT      -0.086100
     13 C23          2.5410     0.6300     1.0130 ca         1 AQT      -0.105000
     14 C11          1.7800    -0.4410     0.5040 ca         1 AQT      -0.082300
     15 C10          2.3790    -1.3460    -0.3920 ca         1 AQT      -0.086000
     16 C9           3.7230    -1.1870    -0.7680 ca         1 AQT      -0.099000
     17 C12          0.3250    -0.6160     0.9130 c3         1 AQT       0.206100
     18 N           -0.5680    -0.0420    -0.1090 n7         1 AQT      -0.863400
     19 C13         -2.0080    -0.1300     0.1950 c3         1 AQT       0.160800
     20 C14         -2.8310     0.4610    -0.9610 c3         1 AQT      -0.096700
     21 C15         -4.3080     0.3990    -0.6880 cd         1 AQT       0.421800
     22 C22         -6.3200    -0.2820    -0.6170 ca         1 AQT       0.105400
     23 C16         -6.2930     0.9300     0.0110 ca         1 AQT      -0.112200
     24 C21         -7.5180    -0.9970    -0.7360 ca         1 AQT      -0.093000
     25 C19         -8.6990    -0.4440    -0.1970 ca         1 AQT       0.116100
     26 O           -9.8660    -1.1700    -0.3270 os         1 AQT      -0.343100
     27 C20        -11.1250    -0.6980     0.1860 c3         1 AQT       0.150900
     28 C18         -8.6560     0.8190     0.4540 ca         1 AQT      -0.170000
     29 C17         -7.4370     1.5200     0.5620 ca         1 AQT      -0.079000
     30 H1          -4.6430     2.2710     0.3580 hn         1 AQT       0.354000
     31 H2           7.6220    -0.8980     2.1750 hc         1 AQT       0.050200
     32 H3           5.9060    -0.6140     2.0280 hc         1 AQT       0.050200
     33 H5           7.7590     1.2030    -3.3260 ha         1 AQT       0.113000
     34 H6           5.4090     0.9330    -2.5690 ha         1 AQT       0.115000
     35 H7           9.6320     0.4450    -1.8680 ha         1 AQT       0.112000
     36 H8           9.1550    -0.5860     0.3360 ha         1 AQT       0.112000
     37 H9           7.3890    -3.0750     0.9320 hc         1 AQT       0.034367
     38 H10          6.3720    -3.0280     2.3890 hc         1 AQT       0.034367
     39 H11          5.6390    -2.7950     0.7880 hc         1 AQT       0.034367
     40 H12          2.0890     1.3410     1.7000 ha         1 AQT       0.125000
     41 H13          1.7990    -2.1730    -0.7980 ha         1 AQT       0.134000
     42 H14          4.1740    -1.8940    -1.4610 ha         1 AQT       0.123000
     43 H15          0.1170    -1.6860     1.0480 h1         1 AQT       0.041200
     44 H16          0.1620    -0.1270     1.8840 h1         1 AQT       0.041200
     45 H17         -0.3180     0.9480    -0.2210 hn         1 AQT       0.408000
     46 H19         -2.3060    -1.1770     0.3440 h1         1 AQT       0.042200
     47 H20         -2.2410     0.4180     1.1200 h1         1 AQT       0.042200
     48 H21         -2.5310     1.5020    -1.1290 hc         1 AQT       0.067700
     49 H22         -2.6010    -0.0840    -1.8840 hc         1 AQT       0.067700
     50 H23         -7.5380    -1.9610    -1.2350 ha         1 AQT       0.143000
     51 H24        -11.9180    -1.4260    -0.0250 h1         1 AQT       0.038367
     52 H25        -11.0740    -0.5570     1.2740 h1         1 AQT       0.038367
     53 H26        -11.4040     0.2550    -0.2810 h1         1 AQT       0.038367
     54 H27         -9.5500     1.2660     0.8780 ha         1 AQT       0.117000
     55 H28         -7.3890     2.4880     1.0570 ha         1 AQT       0.116000
     56 Cl           4.7810     2.1610     1.2970 cl         1 AQT      -0.201000
@<TRIPOS>BOND
     1     1    21 1   
     2     1    23 1   
     3     1    30 1   
     4     2     4 1   
     5     2    12 1   
     6     2    31 1   
     7     2    32 1   
     8     3    21 2   
     9     3    22 1   
    10     4     7 ar  
    11     4    11 ar  
    12     5     6 ar  
    13     5    10 ar  
    14     5    33 1   
    15     6     7 ar  
    16     6    34 1   
    17     7     9 1   
    18     8     9 ar  
    19     8    13 ar  
    20     8    56 1   
    21     9    16 ar  
    22    10    11 ar  
    23    10    35 1   
    24    11    36 1   
    25    12    37 1   
    26    12    38 1   
    27    12    39 1   
    28    13    14 ar  
    29    13    40 1   
    30    14    15 ar  
    31    14    17 1   
    32    15    16 ar  
    33    15    41 1   
    34    16    42 1   
    35    17    18 1   
    36    17    43 1   
    37    17    44 1   
    38    18    19 1   
    39    18    45 1   
    40    19    20 1   
    41    19    46 1   
    42    19    47 1   
    43    20    21 1   
    44    20    48 1   
    45    20    49 1   
    46    22    23 ar  
    47    22    24 ar  
    48    23    29 ar  
    49    24    25 ar  
    50    24    50 1   
    51    25    26 1   
    52    25    28 ar  
    53    26    27 1   
    54    27    51 1   
    55    27    52 1   
    56    27    53 1   
    57    28    29 ar  
    58    28    54 1   
    59    29    55 1   
@<TRIPOS>SUBSTRUCTURE
     1 AQT         1 TEMP              0 ****  ****    0 ROOT
