@<TRIPOS>MOLECULE
AQT
   56    59     1     0     0
SMALL
abcg2


@<TRIPOS>ATOM
      1 N1          -5.0410     1.3750    -0.6390 na         1 AQT      -0.314600
      2 C1           6.4900    -1.5920     1.3580 c3         1 AQT      -0.035100
      3 N2          -4.8720    -0.8330    -0.7670 nc         1 AQT      -0.579100
      4 C2           6.8760    -0.6930     0.2140 ca         1 AQT      -0.048300
      5 C5           7.6480     0.8560    -1.9920 ca         1 AQT      -0.116000
      6 C6           6.3270     0.8430    -1.5700 ca         1 AQT      -0.091000
      7 C7           5.9320     0.0780    -0.4750 cp         1 AQT      -0.040000
      8 C24          4.0210     0.8040     1.0040 ca         1 AQT       0.126000
      9 C8           4.5010     0.0840    -0.0840 cp         1 AQT      -0.022000
     10 C4           8.5890     0.0970    -1.3130 ca         1 AQT      -0.102000
     11 C3           8.1980    -0.6680    -0.2230 ca         1 AQT      -0.113000
     12 C            6.0590    -2.9760     0.8760 c3         1 AQT      -0.086100
     13 C23          2.6760     0.8140     1.3440 ca         1 AQT      -0.105000
     14 C11          1.7600     0.0930     0.5900 ca         1 AQT      -0.082300
     15 C10          2.2190    -0.6220    -0.5130 ca         1 AQT      -0.086000
     16 C9           3.5650    -0.6250    -0.8370 ca         1 AQT      -0.099000
     17 C12          0.3020     0.0780     0.9660 c3         1 AQT       0.206100
     18 N           -0.5400     0.3300    -0.1860 n7         1 AQT      -0.863400
     19 C13         -1.9520     0.2220     0.1170 c3         1 AQT       0.160800
     20 C14         -2.7830     0.4520    -1.1450 c3         1 AQT      -0.096700
     21 C15         -4.2380     0.3070    -0.8700 cd         1 AQT       0.421800
     22 C22         -6.1680    -0.5020    -0.4520 ca         1 AQT       0.105400
     23 C16         -6.2980     0.8950    -0.3670 ca         1 AQT      -0.112200
     24 C21         -7.2670    -1.3240    -0.2280 ca         1 AQT      -0.093000
     25 C19         -8.4830    -0.7250     0.0820 ca         1 AQT       0.116100
     26 O           -9.5200    -1.5690     0.2950 os         1 AQT      -0.343100
     27 C20        -10.7780    -1.0280     0.6370 c3         1 AQT       0.150900
     28 C18         -8.5980     0.6740     0.1630 ca         1 AQT      -0.170000
     29 C17         -7.5050     1.4990    -0.0620 ca         1 AQT      -0.079000
     30 H1          -4.7610     2.3420    -0.6750 hn         1 AQT       0.354000
     31 H2           7.3410    -1.6940     2.0360 hc         1 AQT       0.050200
     32 H3           5.6850    -1.1480     1.9450 hc         1 AQT       0.050200
     33 H5           7.9390     1.4570    -2.8450 ha         1 AQT       0.113000
     34 H6           5.5900     1.4400    -2.0930 ha         1 AQT       0.115000
     35 H7           9.6240     0.0980    -1.6290 ha         1 AQT       0.112000
     36 H8           8.9350    -1.2660     0.3010 ha         1 AQT       0.112000
     37 H9           6.8630    -3.4700     0.3310 hc         1 AQT       0.034367
     38 H10          5.7850    -3.6110     1.7190 hc         1 AQT       0.034367
     39 H11          5.1950    -2.9120     0.2130 hc         1 AQT       0.034367
     40 H12          2.3400     1.3900     2.1970 ha         1 AQT       0.125000
     41 H13          1.5190    -1.1800    -1.1210 ha         1 AQT       0.134000
     42 H14          3.9090    -1.1900    -1.6940 ha         1 AQT       0.123000
     43 H15          0.0470    -0.9120     1.3570 h1         1 AQT       0.041200
     44 H16          0.1320     0.7850     1.7920 h1         1 AQT       0.041200
     45 H17         -0.3440     1.2620    -0.5350 hn         1 AQT       0.408000
     46 H19         -2.1480    -0.7850     0.4930 h1         1 AQT       0.042200
     47 H20         -2.2780     0.9200     0.9030 h1         1 AQT       0.042200
     48 H21         -2.5810     1.4480    -1.5460 hc         1 AQT       0.067700
     49 H22         -2.4900    -0.2720    -1.9070 hc         1 AQT       0.067700
     50 H23         -7.1820    -2.4020    -0.2880 ha         1 AQT       0.143000
     51 H24        -11.4500    -1.8720     0.7740 h1         1 AQT       0.038367
     52 H25        -10.7420    -0.4570     1.5690 h1         1 AQT       0.038367
     53 H26        -11.1800    -0.3860    -0.1520 h1         1 AQT       0.038367
     54 H27         -9.5450     1.1360     0.4050 ha         1 AQT       0.117000
     55 H28         -7.6090     2.5740     0.0040 ha         1 AQT       0.116000
     56 CL           5.1200     1.7390     1.9680 cl         1 AQT      -0.201000
@<TRIPOS>BOND
     1     1    21 1   
     2     1    23 1   
     3     1    30 1   
     4     2     4 1   
     5     2    12 1   
     6     2    31 1   
     7     2    32 1   
     8     3    21 2   
     9     3    22 1   
    10     4     7 ar  
    11     4    11 ar  
    12     5     6 ar  
    13     5    10 ar  
    14     5    33 1   
    15     6     7 ar  
    16     6    34 1   
    17     7     9 1   
    18     8     9 ar  
    19     8    13 ar  
    20     8    56 1   
    21     9    16 ar  
    22    10    11 ar  
    23    10    35 1   
    24    11    36 1   
    25    12    37 1   
    26    12    38 1   
    27    12    39 1   
    28    13    14 ar  
    29    13    40 1   
    30    14    15 ar  
    31    14    17 1   
    32    15    16 ar  
    33    15    41 1   
    34    16    42 1   
    35    17    18 1   
    36    17    43 1   
    37    17    44 1   
    38    18    19 1   
    39    18    45 1   
    40    19    20 1   
    41    19    46 1   
    42    19    47 1   
    43    20    21 1   
    44    20    48 1   
    45    20    49 1   
    46    22    23 ar  
    47    22    24 ar  
    48    23    29 ar  
    49    24    25 ar  
    50    24    50 1   
    51    25    26 1   
    52    25    28 ar  
    53    26    27 1   
    54    27    51 1   
    55    27    52 1   
    56    27    53 1   
    57    28    29 ar  
    58    28    54 1   
    59    29    55 1   
@<TRIPOS>SUBSTRUCTURE
     1 AQT         1 TEMP              0 ****  ****    0 ROOT
