@<TRIPOS>MOLECULE
AQU
   65    69     1     0     0
SMALL
abcg2


@<TRIPOS>ATOM
      1 N1         -10.8690    35.7430    -7.6010 nb         1 AQU      -0.274000
      2 C2         -12.1680    35.5950    -7.8950 ca         1 AQU       0.168900
      3 N3         -13.1800    36.2380    -7.3920 nb         1 AQU      -0.205000
      4 C4         -12.8800    37.1900    -6.4680 ca         1 AQU       0.049000
      5 C5         -11.5520    37.4600    -6.0740 ca         1 AQU      -0.173000
      6 C6         -10.5420    36.6450    -6.7000 ca         1 AQU       0.404900
      7 CAA          0.0730    27.5590    -7.1190 c3         1 AQU      -0.080100
      8 CAB         -1.4920    28.2420    -5.2940 c3         1 AQU      -0.080100
      9 CAC         -2.3790    27.1960    -7.3860 c3         1 AQU      -0.080100
     10 OAE         -4.4180    32.5730    -6.6120 o          1 AQU      -0.589100
     11 CAF        -13.6630    38.9110    -4.9690 ca         1 AQU      -0.082000
     12 CAG        -12.3400    39.1890    -4.5890 ca         1 AQU      -0.122000
     13 CAH          1.4690    32.7620   -10.7030 ca         1 AQU      -0.062000
     14 CAJ          1.4860    34.0890   -10.3090 ca         1 AQU      -0.181000
     15 CAK          0.6460    31.8330   -10.0820 ca         1 AQU      -0.139000
     16 CAL         -6.0080    35.0380    -6.4270 ca         1 AQU      -0.116500
     17 CAM         -6.8570    35.1400    -8.6650 ca         1 AQU      -0.116500
     18 CAN         -7.1450    35.6930    -5.9830 ca         1 AQU      -0.102500
     19 CAO         -7.9790    35.8200    -8.2250 ca         1 AQU      -0.102500
     20 CAP        -13.9300    37.9330    -5.8910 ca         1 AQU      -0.096000
     21 CAQ        -11.3010    38.4770    -5.1340 ca         1 AQU      -0.075000
     22 CAR         -0.1380    33.5870    -8.6070 ca         1 AQU      -0.203000
     23 CAS         -2.6580    30.2780    -7.4230 cc         1 AQU      -0.221000
     24 NAV         -0.4870    30.1430    -7.9970 nd         1 AQU      -0.506800
     25 NAX         -3.0410    32.5530    -8.4240 ns         1 AQU      -0.422100
     26 NAY         -9.2450    36.7940    -6.3580 nu         1 AQU      -0.936900
     27 CAZ         -4.0960    33.0360    -7.6880 c          1 AQU       0.669100
     28 CBA          0.6740    34.5250    -9.2550 ca         1 AQU       0.306000
     29 CBB         -5.8610    34.7340    -7.7780 ca         1 AQU      -0.031000
     30 CBC         -8.1440    36.0860    -6.8690 ca         1 AQU       0.276000
     31 CBD         -0.1550    32.2660    -9.0320 ca         1 AQU       0.053800
     32 CBE         -1.4780    29.5030    -7.4140 cc         1 AQU       0.277300
     33 CBF         -2.3030    31.4450    -8.0540 cd         1 AQU       0.020600
     34 NBJ         -0.9860    31.3350    -8.3680 na         1 AQU       0.181000
     35 H2         -12.3880    34.8370    -8.6410 h5         1 AQU       0.046100
     36 HAA          0.2420    27.4670    -8.1930 hc         1 AQU       0.036589
     37 HAAA         0.8700    28.1780    -6.7060 hc         1 AQU       0.036589
     38 HAAB         0.1640    26.5640    -6.6810 hc         1 AQU       0.036589
     39 HAB         -2.4730    28.6460    -5.0400 hc         1 AQU       0.036589
     40 HABA        -1.4030    27.2590    -4.8270 hc         1 AQU       0.036589
     41 HABB        -0.7360    28.8930    -4.8530 hc         1 AQU       0.036589
     42 HAC         -3.3870    27.5560    -7.1740 hc         1 AQU       0.036589
     43 HACA        -2.2780    27.0950    -8.4680 hc         1 AQU       0.036589
     44 HACB        -2.2850    26.2010    -6.9460 hc         1 AQU       0.036589
     45 HNAD         0.3160    36.0440    -7.9520 hn         1 AQU       0.455000
     46 HNAA         1.4580    36.3930    -9.1230 hn         1 AQU       0.455000
     47 HAF        -14.4750    39.4770    -4.5330 ha         1 AQU       0.118000
     48 HAG        -12.1390    39.9700    -3.8680 ha         1 AQU       0.117000
     49 HAH          2.1060    32.4450   -11.5190 ha         1 AQU       0.117000
     50 HAJ          2.1340    34.7950   -10.8140 ha         1 AQU       0.116000
     51 HAK          0.6250    30.8010   -10.4020 ha         1 AQU       0.139000
     52 HAL         -5.2440    34.7750    -5.7110 ha         1 AQU       0.126500
     53 HAM         -6.7520    34.9270    -9.7230 ha         1 AQU       0.126500
     54 HAN         -7.2490    35.9090    -4.9270 ha         1 AQU       0.126000
     55 HAO         -8.7190    36.1350    -8.9440 ha         1 AQU       0.126000
     56 HAP        -14.9440    37.7140    -6.1990 ha         1 AQU       0.136000
     57 HAQ        -10.2930    38.7250    -4.8270 ha         1 AQU       0.106000
     58 HAR         -0.7370    33.8960    -7.7590 ha         1 AQU       0.127000
     59 HAS         -3.6270    30.0120    -7.0400 ha         1 AQU       0.163000
     60 HNAX        -2.7610    33.0350    -9.2660 hn         1 AQU       0.329500
     61 HNAW        -4.5270    34.2720    -9.2630 hn         1 AQU       0.151000
     62 HNAY        -9.0450    37.3580    -5.5480 hn         1 AQU       0.500000
     63 NAW         -4.7310    34.0850    -8.2930 ns         1 AQU      -0.165000
     64 CBK         -1.3090    28.1320    -6.8130 c3         1 AQU      -0.072300
     65 NAD          0.6460    35.8480    -8.8840 nv         1 AQU      -1.079000
@<TRIPOS>BOND
     1     1     2 ar  
     2     1     6 ar  
     3     2     3 ar  
     4     2    35 1   
     5     3     4 ar  
     6     4     5 ar  
     7     4    20 ar  
     8     5     6 ar  
     9     5    21 ar  
    10     6    26 1   
    11     7    36 1   
    12     7    37 1   
    13     7    38 1   
    14     7    64 1   
    15     8    39 1   
    16     8    40 1   
    17     8    41 1   
    18     8    64 1   
    19     9    42 1   
    20     9    43 1   
    21     9    44 1   
    22     9    64 1   
    23    10    27 2   
    24    11    12 ar  
    25    11    20 ar  
    26    11    47 1   
    27    12    21 ar  
    28    12    48 1   
    29    13    14 ar  
    30    13    15 ar  
    31    13    49 1   
    32    14    28 ar  
    33    14    50 1   
    34    15    31 ar  
    35    15    51 1   
    36    16    18 ar  
    37    16    29 ar  
    38    16    52 1   
    39    17    19 ar  
    40    17    29 ar  
    41    17    53 1   
    42    18    30 ar  
    43    18    54 1   
    44    19    30 ar  
    45    19    55 1   
    46    20    56 1   
    47    21    57 1   
    48    22    28 ar  
    49    22    31 ar  
    50    22    58 1   
    51    23    32 1   
    52    23    33 2   
    53    23    59 1   
    54    24    32 2   
    55    24    34 1   
    56    25    27 1   
    57    25    33 1   
    58    25    60 1   
    59    26    30 1   
    60    26    62 1   
    61    27    63 1   
    62    28    65 1   
    63    29    63 1   
    64    31    34 1   
    65    32    64 1   
    66    33    34 1   
    67    45    65 1   
    68    46    65 1   
    69    61    63 1   
@<TRIPOS>SUBSTRUCTURE
     1 AQU         1 TEMP              0 ****  ****    0 ROOT
