@<TRIPOS>MOLECULE
AQU
   65    69     1     0     0
SMALL
No Charge or Current Charge


@<TRIPOS>ATOM
      1 N1         -10.5720    37.0660    -8.3940 nb         1 AQU      -0.274000
      2 C2         -11.4570    37.8400    -9.0480 ca         1 AQU       0.168900
      3 N3         -12.4730    38.5370    -8.5010 nb         1 AQU      -0.205000
      4 C4         -12.6280    38.4600    -7.1640 ca         1 AQU       0.049000
      5 C5         -11.7450    37.6730    -6.3800 ca         1 AQU      -0.173000
      6 C6         -10.7070    36.9870    -7.0590 ca         1 AQU       0.404900
      7 CAA          0.7390    27.6230    -6.8190 c3         1 AQU      -0.080100
      8 CAB         -0.6240    28.4780    -4.8790 c3         1 AQU      -0.080100
      9 CAC         -1.7400    27.1740    -6.7420 c3         1 AQU      -0.080100
     10 OAE         -4.6830    31.7420    -6.4600 o          1 AQU      -0.589100
     11 CAF        -13.8440    39.0880    -5.1380 ca         1 AQU      -0.082000
     12 CAG        -12.9680    38.3130    -4.3640 ca         1 AQU      -0.122000
     13 CAH         -0.6290    33.2280   -11.4910 ca         1 AQU      -0.062000
     14 CAJ          0.2880    34.2170   -11.0960 ca         1 AQU      -0.181000
     15 CAK         -1.0040    32.2210   -10.5850 ca         1 AQU      -0.139000
     16 CAL         -6.9850    33.7420    -6.3450 ca         1 AQU      -0.116500
     17 CAM         -6.5060    35.4580    -7.9910 ca         1 AQU      -0.116500
     18 CAN         -8.2050    34.3760    -6.0480 ca         1 AQU      -0.102500
     19 CAO         -7.7270    36.0880    -7.6920 ca         1 AQU      -0.102500
     20 CAP        -13.6720    39.1600    -6.5300 ca         1 AQU      -0.096000
     21 CAQ        -11.9200    37.6070    -4.9770 ca         1 AQU      -0.075000
     22 CAR          0.4540    33.1980    -8.8990 ca         1 AQU      -0.203000
     23 CAS         -2.1310    30.2540    -6.9430 cc         1 AQU      -0.221000
     24 NAV         -0.1180    30.0890    -8.0250 nd         1 AQU      -0.506800
     25 NAX         -3.0060    32.3790    -7.8900 ns         1 AQU      -0.422100
     26 NAY         -9.8130    36.1500    -6.3850 nu         1 AQU      -0.936900
     27 CAZ         -4.2310    32.5380    -7.2710 c          1 AQU       0.669100
     28 CBA          0.8290    34.2000    -9.8020 ca         1 AQU       0.306000
     29 CBB         -6.1240    34.2770    -7.3280 ca         1 AQU      -0.031000
     30 CBC         -8.5950    35.5450    -6.7250 ca         1 AQU       0.276000
     31 CBD         -0.4650    32.2030    -9.2840 ca         1 AQU       0.053800
     32 CBE         -0.9350    29.5240    -7.1470 cc         1 AQU       0.277300
     33 CBF         -2.0760    31.3540    -7.7420 cd         1 AQU       0.020600
     34 NBJ         -0.8430    31.2090    -8.3810 na         1 AQU       0.181000
     35 H2         -11.3440    37.9070   -10.1280 h5         1 AQU       0.046100
     36 HAA          0.7710    27.4060    -7.8940 hc         1 AQU       0.036589
     37 HAAA         1.5530    28.3200    -6.5860 hc         1 AQU       0.036589
     38 HAAB         0.9380    26.6860    -6.2830 hc         1 AQU       0.036589
     39 HAB         -1.5970    28.8420    -4.5260 hc         1 AQU       0.036589
     40 HABA        -0.3910    27.5590    -4.3260 hc         1 AQU       0.036589
     41 HABB         0.1310    29.2300    -4.6210 hc         1 AQU       0.036589
     42 HAC         -2.7290    27.5180    -6.4170 hc         1 AQU       0.036589
     43 HACA        -1.7850    26.9900    -7.8230 hc         1 AQU       0.036589
     44 HACB        -1.5390    26.2180    -6.2440 hc         1 AQU       0.036589
     45 HNAD         2.2270    35.0620    -8.5440 hn         1 AQU       0.455000
     46 HNAA         2.1080    35.7980   -10.1170 hn         1 AQU       0.455000
     47 HAF        -14.6550    39.6340    -4.6610 ha         1 AQU       0.118000
     48 HAG        -13.0990    38.2610    -3.2850 ha         1 AQU       0.117000
     49 HAH         -1.0470    33.2410   -12.4960 ha         1 AQU       0.117000
     50 HAJ          0.5750    34.9950   -11.7980 ha         1 AQU       0.116000
     51 HAK         -1.7120    31.4540   -10.8920 ha         1 AQU       0.139000
     52 HAL         -6.7310    32.8400    -5.7980 ha         1 AQU       0.126500
     53 HAM         -5.8520    35.8960    -8.7430 ha         1 AQU       0.126500
     54 HAN         -8.8550    33.9490    -5.2890 ha         1 AQU       0.126000
     55 HAO         -7.9820    37.0100    -8.2040 ha         1 AQU       0.126000
     56 HAP        -14.3550    39.7650    -7.1230 ha         1 AQU       0.136000
     57 HAQ        -11.2520    37.0220    -4.3500 ha         1 AQU       0.106000
     58 HAR          0.8720    33.1860    -7.8960 ha         1 AQU       0.127000
     59 HAS         -2.9250    29.9650    -6.2660 ha         1 AQU       0.163000
     60 HNAX        -2.7790    33.1250    -8.5350 hn         1 AQU       0.329500
     61 HNAW        -4.3610    34.2360    -8.3670 hn         1 AQU       0.151000
     62 HNAY       -10.1650    35.8660    -5.4740 hn         1 AQU       0.500000
     63 NAW         -4.8740    33.6960    -7.6830 ns         1 AQU      -0.165000
     64 CBK         -0.6400    28.2180    -6.4090 c3         1 AQU      -0.072300
     65 NAD          1.7210    35.1620    -9.4220 nv         1 AQU      -1.079000
@<TRIPOS>BOND
     1     1     2 ar  
     2     1     6 ar  
     3     2     3 ar  
     4     2    35 1   
     5     3     4 ar  
     6     4     5 ar  
     7     4    20 ar  
     8     5     6 ar  
     9     5    21 ar  
    10     6    26 1   
    11     7    36 1   
    12     7    37 1   
    13     7    38 1   
    14     7    64 1   
    15     8    39 1   
    16     8    40 1   
    17     8    41 1   
    18     8    64 1   
    19     9    42 1   
    20     9    43 1   
    21     9    44 1   
    22     9    64 1   
    23    10    27 2   
    24    11    12 ar  
    25    11    20 ar  
    26    11    47 1   
    27    12    21 ar  
    28    12    48 1   
    29    13    14 ar  
    30    13    15 ar  
    31    13    49 1   
    32    14    28 ar  
    33    14    50 1   
    34    15    31 ar  
    35    15    51 1   
    36    16    18 ar  
    37    16    29 ar  
    38    16    52 1   
    39    17    19 ar  
    40    17    29 ar  
    41    17    53 1   
    42    18    30 ar  
    43    18    54 1   
    44    19    30 ar  
    45    19    55 1   
    46    20    56 1   
    47    21    57 1   
    48    22    28 ar  
    49    22    31 ar  
    50    22    58 1   
    51    23    32 1   
    52    23    33 2   
    53    23    59 1   
    54    24    32 2   
    55    24    34 1   
    56    25    27 1   
    57    25    33 1   
    58    25    60 1   
    59    26    30 1   
    60    26    62 1   
    61    27    63 1   
    62    28    65 1   
    63    29    63 1   
    64    31    34 1   
    65    32    64 1   
    66    33    34 1   
    67    45    65 1   
    68    46    65 1   
    69    61    63 1   
@<TRIPOS>SUBSTRUCTURE
     1 AQU         1 TEMP              0 ****  ****    0 ROOT
