@<TRIPOS>MOLECULE
AQV
   49    52     1     0     0
SMALL
No Charge or Current Charge


@<TRIPOS>ATOM
      1 C1          53.2550    70.7200    48.9260 ca         1 AQV      -0.138600
      2 C2          54.0400    71.5880    49.6980 ca         1 AQV      -0.046500
      3 C3          54.9240    71.0150    50.6390 ca         1 AQV      -0.099000
      4 C4          55.0050    69.6080    50.7910 ca         1 AQV      -0.099000
      5 C5          54.2040    68.7520    50.0050 ca         1 AQV      -0.046500
      6 C6          53.3350    69.3410    49.0760 ca         1 AQV      -0.138600
      7 N1          51.8210    69.7720    47.4130 n          1 AQV      -0.390400
      8 N2          52.6210    68.6840    44.7000 n          1 AQV      -0.234400
      9 O1          50.4290    67.9070    44.6480 o          1 AQV      -0.580100
     10 C7          52.2500    71.0210    47.8680 c          1 AQV       0.588600
     11 C8          52.3850    68.7100    48.1170 c          1 AQV       0.588600
     12 C9          50.8150    69.5800    46.3320 c3         1 AQV       0.033000
     13 C10         51.2520    68.6790    45.1330 c          1 AQV       0.600100
     14 C11         53.2350    67.4410    44.0840 c6         1 AQV       0.144400
     15 C12         54.7980    67.5780    43.9460 c6         1 AQV      -0.081400
     16 C13         55.4840    68.4390    45.0340 c6         1 AQV      -0.005400
     17 C14         54.8040    69.7990    45.0560 ca         1 AQV      -0.100300
     18 C15         53.4350    69.8910    44.7150 ca         1 AQV      -0.027000
     19 O2          52.1280    67.5240    47.9860 o          1 AQV      -0.483500
     20 O3          51.8530    72.1180    47.5040 o          1 AQV      -0.483500
     21 C16         52.8510    71.1750    44.6430 ca         1 AQV      -0.140000
     22 C17         53.6170    72.3330    44.8640 ca         1 AQV      -0.080000
     23 C18         54.9740    72.2250    45.2000 ca         1 AQV      -0.126000
     24 C19         55.5680    70.9590    45.2920 ca         1 AQV      -0.093000
     25 C20         55.5590    67.8000    46.4430 c3         1 AQV      -0.082100
     26 C22         52.6930    67.2130    42.6360 c3         1 AQV      -0.104100
     27 C21         52.9340    66.1370    44.9010 c3         1 AQV      -0.104100
     28 H1          53.9730    72.6670    49.5740 ha         1 AQV       0.138000
     29 H2          55.5490    71.6610    51.2520 ha         1 AQV       0.123000
     30 H3          55.6920    69.1830    51.5200 ha         1 AQV       0.123000
     31 H4          54.2610    67.6710    50.1140 ha         1 AQV       0.138000
     32 H5          50.5080    70.5570    45.9400 h1         1 AQV       0.087200
     33 H6          49.9240    69.1230    46.7790 h1         1 AQV       0.087200
     34 H7          55.2790    66.5920    43.8890 hc         1 AQV       0.049700
     35 H8          55.0300    68.0570    42.9840 hc         1 AQV       0.049700
     36 H9          56.5300    68.5750    44.7240 hc         1 AQV       0.048700
     37 H10         51.8040    71.2930    44.3800 ha         1 AQV       0.119000
     38 H11         53.1530    73.3140    44.7870 ha         1 AQV       0.119000
     39 H12         55.5650    73.1200    45.3790 ha         1 AQV       0.115000
     40 H13         56.6260    70.8790    45.5320 ha         1 AQV       0.112000
     41 H14         56.1790    68.4060    47.1130 hc         1 AQV       0.038700
     42 H15         54.5740    67.7200    46.9040 hc         1 AQV       0.038700
     43 H16         55.9980    66.7960    46.4020 hc         1 AQV       0.038700
     44 H17         52.8220    68.1110    42.0200 hc         1 AQV       0.050033
     45 H18         53.2200    66.3910    42.1360 hc         1 AQV       0.050033
     46 H19         51.6270    66.9600    42.6220 hc         1 AQV       0.050033
     47 H20         53.2520    66.2180    45.9430 hc         1 AQV       0.050033
     48 H21         51.8710    65.8790    44.9080 hc         1 AQV       0.050033
     49 H22         53.4540    65.2710    44.4740 hc         1 AQV       0.050033
@<TRIPOS>BOND
     1     1     2 ar  
     2     1     6 ar  
     3     1    10 1   
     4     2     3 ar  
     5     2    28 1   
     6     3     4 ar  
     7     3    29 1   
     8     4     5 ar  
     9     4    30 1   
    10     5     6 ar  
    11     5    31 1   
    12     6    11 1   
    13     7    10 1   
    14     7    11 1   
    15     7    12 1   
    16     8    13 1   
    17     8    14 1   
    18     8    18 1   
    19     9    13 2   
    20    10    20 2   
    21    11    19 2   
    22    12    13 1   
    23    12    32 1   
    24    12    33 1   
    25    14    15 1   
    26    14    26 1   
    27    14    27 1   
    28    15    16 1   
    29    15    34 1   
    30    15    35 1   
    31    16    17 1   
    32    16    25 1   
    33    16    36 1   
    34    17    18 ar  
    35    17    24 ar  
    36    18    21 ar  
    37    21    22 ar  
    38    21    37 1   
    39    22    23 ar  
    40    22    38 1   
    41    23    24 ar  
    42    23    39 1   
    43    24    40 1   
    44    25    41 1   
    45    25    42 1   
    46    25    43 1   
    47    26    44 1   
    48    26    45 1   
    49    26    46 1   
    50    27    47 1   
    51    27    48 1   
    52    27    49 1   
@<TRIPOS>SUBSTRUCTURE
     1 AQV         1 TEMP              0 ****  ****    0 ROOT
