@<TRIPOS>MOLECULE
AQV
   49    52     1     0     0
SMALL
abcg2


@<TRIPOS>ATOM
      1 C1          53.3450    70.6920    48.9440 ca         1 AQV      -0.138600
      2 C2          54.1490    71.5450    49.6740 ca         1 AQV      -0.046500
      3 C3          54.9880    70.9740    50.6330 ca         1 AQV      -0.099000
      4 C4          55.0050    69.5960    50.8470 ca         1 AQV      -0.099000
      5 C5          54.1850    68.7410    50.1070 ca         1 AQV      -0.046500
      6 C6          53.3640    69.3150    49.1570 ca         1 AQV      -0.138600
      7 N1          51.8980    69.7320    47.4330 n          1 AQV      -0.390400
      8 N2          52.6660    68.6370    44.8110 n          1 AQV      -0.234400
      9 O1          50.5410    67.7940    44.8270 o          1 AQV      -0.580100
     10 C7          52.3600    70.9810    47.8700 c          1 AQV       0.588600
     11 C8          52.4060    68.6910    48.2090 c          1 AQV       0.588600
     12 C9          50.9210    69.5270    46.3880 c3         1 AQV       0.033000
     13 C10         51.3710    68.5910    45.2490 c          1 AQV       0.600100
     14 C11         53.2680    67.4650    44.0660 c6         1 AQV       0.144400
     15 C12         54.8100    67.6350    44.0360 c6         1 AQV      -0.081400
     16 C13         55.4260    68.4440    45.1880 c6         1 AQV      -0.005400
     17 C14         54.7740    69.7990    45.1340 ca         1 AQV      -0.100300
     18 C15         53.4050    69.8520    44.8470 ca         1 AQV      -0.027000
     19 O2          52.0900    67.5270    48.0870 o          1 AQV      -0.483500
     20 O3          51.9800    72.0490    47.4480 o          1 AQV      -0.483500
     21 C16         52.8080    71.0690    44.5240 ca         1 AQV      -0.140000
     22 C17         53.5390    72.2480    44.6010 ca         1 AQV      -0.080000
     23 C18         54.8790    72.2130    44.9670 ca         1 AQV      -0.126000
     24 C19         55.4930    70.9860    45.2050 ca         1 AQV      -0.093000
     25 C20         55.3670    67.7720    46.5630 c3         1 AQV      -0.082100
     26 C22         52.7440    67.4620    42.6270 c3         1 AQV      -0.104100
     27 C21         52.9190    66.1460    44.7670 c3         1 AQV      -0.104100
     28 H1          54.1330    72.6140    49.5060 ha         1 AQV       0.138000
     29 H2          55.6370    71.6110    51.2210 ha         1 AQV       0.123000
     30 H3          55.6660    69.1830    51.5980 ha         1 AQV       0.123000
     31 H4          54.1980    67.6720    50.2680 ha         1 AQV       0.138000
     32 H5          50.6310    70.5040    46.0120 h1         1 AQV       0.087200
     33 H6          50.0350    69.0490    46.8030 h1         1 AQV       0.087200
     34 H7          55.2540    66.6390    43.9940 hc         1 AQV       0.049700
     35 H8          55.0860    68.1440    43.1110 hc         1 AQV       0.049700
     36 H9          56.4830    68.5840    44.9460 hc         1 AQV       0.048700
     37 H10         51.7750    71.0960    44.2050 ha         1 AQV       0.119000
     38 H11         53.0600    73.1900    44.3670 ha         1 AQV       0.119000
     39 H12         55.4530    73.1280    45.0300 ha         1 AQV       0.115000
     40 H13         56.5530    70.9420    45.4270 ha         1 AQV       0.112000
     41 H14         55.8630    68.3970    47.3080 hc         1 AQV       0.038700
     42 H15         54.3470    67.6020    46.8950 hc         1 AQV       0.038700
     43 H16         55.8750    66.8060    46.5320 hc         1 AQV       0.038700
     44 H17         52.9490    68.4210    42.1470 hc         1 AQV       0.050033
     45 H18         53.2490    66.6800    42.0550 hc         1 AQV       0.050033
     46 H19         51.6720    67.2760    42.6030 hc         1 AQV       0.050033
     47 H20         53.2290    66.1580    45.8100 hc         1 AQV       0.050033
     48 H21         51.8560    65.9320    44.7220 hc         1 AQV       0.050033
     49 H22         53.4550    65.3420    44.2610 hc         1 AQV       0.050033
@<TRIPOS>BOND
     1     1     2 ar  
     2     1     6 ar  
     3     1    10 1   
     4     2     3 ar  
     5     2    28 1   
     6     3     4 ar  
     7     3    29 1   
     8     4     5 ar  
     9     4    30 1   
    10     5     6 ar  
    11     5    31 1   
    12     6    11 1   
    13     7    10 1   
    14     7    11 1   
    15     7    12 1   
    16     8    13 1   
    17     8    14 1   
    18     8    18 1   
    19     9    13 2   
    20    10    20 2   
    21    11    19 2   
    22    12    13 1   
    23    12    32 1   
    24    12    33 1   
    25    14    15 1   
    26    14    26 1   
    27    14    27 1   
    28    15    16 1   
    29    15    34 1   
    30    15    35 1   
    31    16    17 1   
    32    16    25 1   
    33    16    36 1   
    34    17    18 ar  
    35    17    24 ar  
    36    18    21 ar  
    37    21    22 ar  
    38    21    37 1   
    39    22    23 ar  
    40    22    38 1   
    41    23    24 ar  
    42    23    39 1   
    43    24    40 1   
    44    25    41 1   
    45    25    42 1   
    46    25    43 1   
    47    26    44 1   
    48    26    45 1   
    49    26    46 1   
    50    27    47 1   
    51    27    48 1   
    52    27    49 1   
@<TRIPOS>SUBSTRUCTURE
     1 AQV         1 TEMP              0 ****  ****    0 ROOT
