@<TRIPOS>MOLECULE
AQW
   52    55     1     0     0
SMALL
No Charge or Current Charge


@<TRIPOS>ATOM
      1 C1          -5.6550     1.2450     1.8310 c3         1 AQW      -0.035100
      2 N1           4.8170     1.5180    -0.0090 na         1 AQW      -0.310600
      3 C2          -6.5970     0.6450     0.7880 ca         1 AQW      -0.048300
      4 C3          -7.9870     0.7490     1.0010 ca         1 AQW      -0.113000
      5 C4          -8.8980     0.2320     0.0660 ca         1 AQW      -0.102000
      6 C5          -8.4270    -0.3930    -1.0990 ca         1 AQW      -0.115000
      7 C6          -7.0460    -0.5010    -1.3230 ca         1 AQW      -0.091000
      8 C7          -6.1130     0.0080    -0.3900 cp         1 AQW      -0.040000
      9 C8          -4.6550    -0.1250    -0.6730 cp         1 AQW      -0.022000
     10 C9          -4.0260     0.7670    -1.5710 ca         1 AQW      -0.097000
     11 C10         -2.6540     0.6620    -1.8520 ca         1 AQW      -0.109000
     12 C11         -1.8800    -0.3460    -1.2450 ca         1 AQW      -0.084300
     13 C12         -0.3930    -0.4680    -1.5450 c3         1 AQW       0.207100
     14 C13          1.8620    -0.0100    -0.5990 c3         1 AQW       0.161800
     15 C14          2.5730     0.4990     0.6650 c3         1 AQW      -0.098700
     16 C15          4.0670     0.4730     0.5250 cc         1 AQW       0.417800
     17 C16          6.1200     1.1280     0.0220 ca         1 AQW      -0.083200
     18 C17          7.2750     1.8000    -0.3940 ca         1 AQW      -0.106000
     19 C18          8.5070     1.1310    -0.2330 ca         1 AQW      -0.087000
     20 C20          7.3530    -0.8090     0.7350 ca         1 AQW      -0.039000
     21 C21          6.1410    -0.1240     0.5660 ca         1 AQW       0.075400
     22 C22         -2.4980    -1.2460    -0.3560 ca         1 AQW      -0.081000
     23 C23         -3.8700    -1.1420    -0.0720 ca         1 AQW       0.124000
     24 Cl1         -4.5880    -2.3090     1.0390 cl         1 AQW      -0.198000
     25 C           -5.2410     2.6870     1.4840 c3         1 AQW      -0.086100
     26 N            0.4010     0.0370    -0.4110 n7         1 AQW      -0.863400
     27 N2           4.8580    -0.5560     0.8900 nd         1 AQW      -0.567100
     28 C19          8.5430    -0.1680     0.3290 ca         1 AQW       0.097000
     29 Cl          10.0870    -0.9890     0.5230 cl         1 AQW      -0.207000
     30 H1          -6.1340     1.2450     2.8180 hc         1 AQW       0.050700
     31 H2          -4.7520     0.6330     1.9420 hc         1 AQW       0.050700
     32 H4          -8.3650     1.2390     1.8960 ha         1 AQW       0.112000
     33 H5          -9.9680     0.3190     0.2420 ha         1 AQW       0.112000
     34 H6          -9.1310    -0.7920    -1.8260 ha         1 AQW       0.114000
     35 H7          -6.6880    -0.9860    -2.2280 ha         1 AQW       0.116000
     36 H8          -4.6130     1.5500    -2.0460 ha         1 AQW       0.122000
     37 H9          -2.1920     1.3640    -2.5430 ha         1 AQW       0.114000
     38 H10         -0.1540    -1.5220    -1.7430 h1         1 AQW       0.041200
     39 H11         -0.1600     0.0960    -2.4590 h1         1 AQW       0.041200
     40 H12          2.1610     0.6100    -1.4560 h1         1 AQW       0.040700
     41 H13          2.1900    -1.0400    -0.8010 h1         1 AQW       0.040700
     42 H14          2.2450     1.5220     0.8850 hc         1 AQW       0.070200
     43 H15          2.2770    -0.1180     1.5200 hc         1 AQW       0.070200
     44 H16          7.2270     2.7990    -0.8240 ha         1 AQW       0.121000
     45 H17          9.4310     1.6130    -0.5410 ha         1 AQW       0.129000
     46 H18          7.3740    -1.8050     1.1670 ha         1 AQW       0.145000
     47 H19         -1.9100    -2.0280     0.1180 ha         1 AQW       0.145000
     48 H20         -4.7110     2.7200     0.5250 hc         1 AQW       0.033700
     49 H21         -6.1240     3.3350     1.4130 hc         1 AQW       0.033700
     50 H22         -4.5780     3.0920     2.2570 hc         1 AQW       0.033700
     51 H23          0.1240     1.0120    -0.2480 hn         1 AQW       0.409000
     52 H3           4.4500     2.3970    -0.3510 hn         1 AQW       0.357000
@<TRIPOS>BOND
     1     1     3 1   
     2     1    25 1   
     3     1    30 1   
     4     1    31 1   
     5     2    16 1   
     6     2    17 1   
     7     2    52 1   
     8     3     4 ar  
     9     3     8 ar  
    10     4     5 ar  
    11     4    32 1   
    12     5     6 ar  
    13     5    33 1   
    14     6     7 ar  
    15     6    34 1   
    16     7     8 ar  
    17     7    35 1   
    18     8     9 1   
    19     9    10 ar  
    20     9    23 ar  
    21    10    11 ar  
    22    10    36 1   
    23    11    12 ar  
    24    11    37 1   
    25    12    13 1   
    26    12    22 ar  
    27    13    26 1   
    28    13    38 1   
    29    13    39 1   
    30    14    15 1   
    31    14    26 1   
    32    14    40 1   
    33    14    41 1   
    34    15    16 1   
    35    15    42 1   
    36    15    43 1   
    37    16    27 2   
    38    17    18 ar  
    39    17    21 ar  
    40    18    19 ar  
    41    18    44 1   
    42    19    28 ar  
    43    19    45 1   
    44    20    21 ar  
    45    20    28 ar  
    46    20    46 1   
    47    21    27 1   
    48    22    23 ar  
    49    22    47 1   
    50    23    24 1   
    51    25    48 1   
    52    25    49 1   
    53    25    50 1   
    54    26    51 1   
    55    28    29 1   
@<TRIPOS>SUBSTRUCTURE
     1 AQW         1 TEMP              0 ****  ****    0 ROOT
