@<TRIPOS>MOLECULE
AQW
   52    55     1     0     0
SMALL
abcg2


@<TRIPOS>ATOM
      1 C1          -5.7950     1.5060     1.6380 c3         1 AQW      -0.035100
      2 N1           4.8720     1.4370     0.3900 na         1 AQW      -0.310600
      3 C2          -6.6100     0.6040     0.7520 ca         1 AQW      -0.048300
      4 C3          -7.9880     0.5200     0.9380 ca         1 AQW      -0.113000
      5 C4          -8.7870    -0.2560     0.1110 ca         1 AQW      -0.102000
      6 C5          -8.2130    -0.9670    -0.9330 ca         1 AQW      -0.115000
      7 C6          -6.8420    -0.8940    -1.1330 ca         1 AQW      -0.091000
      8 C7          -6.0370    -0.1190    -0.3010 cp         1 AQW      -0.040000
      9 C8          -4.5800    -0.0650    -0.5760 cp         1 AQW      -0.022000
     10 C9          -4.0910     0.7040    -1.6280 ca         1 AQW      -0.097000
     11 C10         -2.7360     0.7600    -1.9160 ca         1 AQW      -0.109000
     12 C11         -1.8200     0.0410    -1.1590 ca         1 AQW      -0.084300
     13 C12         -0.3480     0.0790    -1.4700 c3         1 AQW       0.207100
     14 C13          1.8610     0.2490    -0.5090 c3         1 AQW       0.161800
     15 C14          2.6210     0.4510     0.8020 c3         1 AQW      -0.098700
     16 C15          4.0910     0.3470     0.6050 cc         1 AQW       0.417800
     17 C16          6.1530     0.9970     0.2020 ca         1 AQW      -0.083200
     18 C17          7.3540     1.6490    -0.0460 ca         1 AQW      -0.106000
     19 C18          8.4830     0.8620    -0.1820 ca         1 AQW      -0.087000
     20 C20          7.2070    -1.1890     0.1810 ca         1 AQW      -0.039000
     21 C21          6.0650    -0.4010     0.3170 ca         1 AQW       0.075400
     22 C22         -2.2910    -0.7370    -0.1050 ca         1 AQW      -0.081000
     23 C23         -3.6470    -0.7860     0.1660 ca         1 AQW       0.124000
     24 CL1         -4.1930    -1.7910     1.4720 cl         1 AQW      -0.198000
     25 C           -5.6020     2.8930     1.0270 c3         1 AQW      -0.086100
     26 N            0.4350     0.3100    -0.2720 n7         1 AQW      -0.863400
     27 N2           4.7680    -0.7720     0.5680 nd         1 AQW      -0.567100
     28 C19          8.3950    -0.5310    -0.0680 ca         1 AQW       0.097000
     29 CL           9.8510    -1.4650    -0.2500 cl         1 AQW      -0.207000
     30 H1          -6.2990     1.6070     2.6010 hc         1 AQW       0.050700
     31 H2          -4.8200     1.0640     1.8490 hc         1 AQW       0.050700
     32 H4          -8.4430     1.0760     1.7500 ha         1 AQW       0.112000
     33 H5          -9.8550    -0.3040     0.2820 ha         1 AQW       0.112000
     34 H6          -8.8240    -1.5760    -1.5850 ha         1 AQW       0.114000
     35 H7          -6.3850    -1.4490    -1.9430 ha         1 AQW       0.116000
     36 H8          -4.7910     1.2780    -2.2230 ha         1 AQW       0.122000
     37 H9          -2.3890     1.3730    -2.7390 ha         1 AQW       0.114000
     38 H10         -0.0470    -0.8880    -1.8860 h1         1 AQW       0.041200
     39 H11         -0.1660     0.8220    -2.2600 h1         1 AQW       0.041200
     40 H12          2.2090     0.9840    -1.2510 h1         1 AQW       0.040700
     41 H13          2.1030    -0.7390    -0.9120 h1         1 AQW       0.040700
     42 H14          2.3740     1.4270     1.2260 hc         1 AQW       0.070200
     43 H15          2.3070    -0.3070     1.5210 hc         1 AQW       0.070200
     44 H16          7.4170     2.7250    -0.1310 ha         1 AQW       0.121000
     45 H17          9.4400     1.3250    -0.3790 ha         1 AQW       0.129000
     46 H18          7.1580    -2.2660     0.2630 ha         1 AQW       0.145000
     47 H19         -1.5940    -1.3050     0.4980 ha         1 AQW       0.145000
     48 H20         -5.0730     2.8390     0.0750 hc         1 AQW       0.033700
     49 H21         -6.5620     3.3790     0.8480 hc         1 AQW       0.033700
     50 H22         -5.0210     3.5310     1.6940 hc         1 AQW       0.033700
     51 H23          0.1970     1.2200     0.1040 hn         1 AQW       0.409000
     52 H3           4.5610     2.3960     0.3870 hn         1 AQW       0.357000
@<TRIPOS>BOND
     1     1     3 1   
     2     1    25 1   
     3     1    30 1   
     4     1    31 1   
     5     2    16 1   
     6     2    17 1   
     7     2    52 1   
     8     3     4 ar  
     9     3     8 ar  
    10     4     5 ar  
    11     4    32 1   
    12     5     6 ar  
    13     5    33 1   
    14     6     7 ar  
    15     6    34 1   
    16     7     8 ar  
    17     7    35 1   
    18     8     9 1   
    19     9    10 ar  
    20     9    23 ar  
    21    10    11 ar  
    22    10    36 1   
    23    11    12 ar  
    24    11    37 1   
    25    12    13 1   
    26    12    22 ar  
    27    13    26 1   
    28    13    38 1   
    29    13    39 1   
    30    14    15 1   
    31    14    26 1   
    32    14    40 1   
    33    14    41 1   
    34    15    16 1   
    35    15    42 1   
    36    15    43 1   
    37    16    27 2   
    38    17    18 ar  
    39    17    21 ar  
    40    18    19 ar  
    41    18    44 1   
    42    19    28 ar  
    43    19    45 1   
    44    20    21 ar  
    45    20    28 ar  
    46    20    46 1   
    47    21    27 1   
    48    22    23 ar  
    49    22    47 1   
    50    23    24 1   
    51    25    48 1   
    52    25    49 1   
    53    25    50 1   
    54    26    51 1   
    55    28    29 1   
@<TRIPOS>SUBSTRUCTURE
     1 AQW         1 TEMP              0 ****  ****    0 ROOT
