@<TRIPOS>MOLECULE
AQY
   53    57     1     0     0
SMALL
No Charge or Current Charge


@<TRIPOS>ATOM
      1 C4          18.7700    -5.9820     2.1210 ca         1 AQY      -0.038800
      2 C5          18.4940    -6.6880     3.3150 ca         1 AQY      -0.073000
      3 C6          19.4530    -7.5440     3.8820 ca         1 AQY      -0.150000
      4 C7          20.6920    -7.7270     3.2550 ca         1 AQY       0.167000
      5 C13         15.1300    -2.9610    -1.4570 cc         1 AQY      -0.163000
      6 C17         16.6220    -4.5100     2.0310 cc         1 AQY      -0.076300
      7 C20         16.8430    -3.9390     5.7570 ca         1 AQY       0.364900
      8 C22         14.6840    -4.5960     5.2670 ca         1 AQY       0.468900
      9 C24         12.3130    -5.4620     5.3870 c          1 AQY       0.631700
     10 C26         11.1290    -5.5160     6.3340 ca         1 AQY      -0.170600
     11 C28          8.8280    -6.2090     6.7780 ca         1 AQY      -0.204000
     12 C2          20.9790    -7.0700     2.0450 ca         1 AQY      -0.116300
     13 C3          20.0110    -6.2140     1.4810 ca         1 AQY      -0.056000
     14 F8          21.6010    -8.5570     3.8150 f          1 AQY      -0.185000
     15 C9          17.7630    -5.1010     1.4730 cd         1 AQY       0.133400
     16 N10         17.8220    -4.8850     0.0860 nd         1 AQY      -0.265600
     17 C11         16.6910    -4.1540    -0.1590 cd         1 AQY      -0.111000
     18 C12         16.2960    -3.6750    -1.4430 cd         1 AQY      -0.020000
     19 C14         14.4320    -2.7570    -0.2260 cc         1 AQY       0.307900
     20 N15         14.7850    -3.1950     0.9850 nd         1 AQY      -0.450800
     21 N16         15.9680    -3.9330     0.9820 na         1 AQY       0.235900
     22 C18         16.2770    -4.4330     3.4500 ca         1 AQY       0.043200
     23 C19         17.2230    -4.0310     4.4090 ca         1 AQY      -0.172000
     24 N21         15.5910    -4.2170     6.1870 nb         1 AQY      -0.726000
     25 O25         12.2580    -5.9560     4.2690 o          1 AQY      -0.574100
     26 C27          9.9360    -6.1490     5.9150 ca         1 AQY      -0.041000
     27 N29          8.8740    -5.6560     8.0500 na         1 AQY       0.448300
     28 O30          7.8770    -5.7300     8.7820 o          1 AQY      -0.503000
     29 C31         10.0470    -5.0230     8.4860 ca         1 AQY      -0.120600
     30 C32         10.1040    -4.4100     9.8860 c3         1 AQY      -0.037800
     31 C33         11.1700    -4.9520     7.6350 ca         1 AQY      -0.066000
     32 C34         14.9740    -4.7080     3.8950 ca         1 AQY      -0.147000
     33 H1          17.5260    -6.6150     3.7990 ha         1 AQY       0.124000
     34 H2          19.2300    -8.0780     4.8020 ha         1 AQY       0.134000
     35 H3          14.7260    -2.5440    -2.3730 ha         1 AQY       0.138000
     36 H4          17.5600    -3.6300     6.5160 h4         1 AQY       0.025100
     37 H5           7.8970    -6.6900     6.4830 h4         1 AQY       0.174000
     38 H6          23.1500    -6.9770     1.9950 hc         1 AQY       0.048367
     39 H7          22.4640    -8.3380     1.0900 hc         1 AQY       0.048367
     40 H8          22.3930    -6.7030     0.4200 hc         1 AQY       0.048367
     41 H9          20.2410    -5.7070     0.5460 ha         1 AQY       0.131000
     42 H10         16.8770    -3.8620    -2.3420 ha         1 AQY       0.150000
     43 H11         13.5100    -2.1910    -0.2120 h4         1 AQY       0.043100
     44 H12         18.2400    -3.7840     4.1210 ha         1 AQY       0.137000
     45 H13         13.3840    -4.5030     6.8160 hn         1 AQY       0.168000
     46 H14          9.8630    -6.5940     4.9240 ha         1 AQY       0.157000
     47 H16          9.3410    -3.6320    10.0080 hc         1 AQY       0.064367
     48 H17          9.9310    -5.1710    10.6570 hc         1 AQY       0.064367
     49 H18         11.0770    -3.9500    10.0940 hc         1 AQY       0.064367
     50 H19         12.0660    -4.4540     7.9990 ha         1 AQY       0.135000
     51 H20         14.2120    -4.9950     3.1800 ha         1 AQY       0.166000
     52 C1          22.3180    -7.2820     1.3480 c3         1 AQY      -0.039800
     53 N23         13.4420    -4.8370     5.8660 ns         1 AQY      -0.316900
@<TRIPOS>BOND
     1     1     2 ar  
     2     1    13 ar  
     3     1    15 1   
     4     2     3 ar  
     5     2    33 1   
     6     3     4 ar  
     7     3    34 1   
     8     4    12 ar  
     9     4    14 1   
    10     5    18 2   
    11     5    19 1   
    12     5    35 1   
    13     6    15 2   
    14     6    21 1   
    15     6    22 1   
    16     7    23 ar  
    17     7    24 ar  
    18     7    36 1   
    19     8    24 ar  
    20     8    32 ar  
    21     8    53 1   
    22     9    10 1   
    23     9    25 2   
    24     9    53 1   
    25    10    26 ar  
    26    10    31 ar  
    27    11    26 ar  
    28    11    27 1   
    29    11    37 1   
    30    12    13 ar  
    31    12    52 1   
    32    13    41 1   
    33    15    16 1   
    34    16    17 2   
    35    17    18 1   
    36    17    21 1   
    37    18    42 1   
    38    19    20 2   
    39    19    43 1   
    40    20    21 1   
    41    22    23 ar  
    42    22    32 ar  
    43    23    44 1   
    44    26    46 1   
    45    27    28 1   
    46    27    29 2   
    47    29    30 1   
    48    29    31 ar  
    49    30    47 1   
    50    30    48 1   
    51    30    49 1   
    52    31    50 1   
    53    32    51 1   
    54    38    52 1   
    55    39    52 1   
    56    40    52 1   
    57    45    53 1   
@<TRIPOS>SUBSTRUCTURE
     1 AQY         1 TEMP              0 ****  ****    0 ROOT
