@<TRIPOS>MOLECULE
AQY
   53    57     1     0     0
SMALL
abcg2


@<TRIPOS>ATOM
      1 C4          18.8200    -6.1360     2.1220 ca         1 AQY      -0.038800
      2 C5          18.6230    -6.9030     3.2720 ca         1 AQY      -0.073000
      3 C6          19.6910    -7.5630     3.8650 ca         1 AQY      -0.150000
      4 C7          20.9430    -7.4470     3.2930 ca         1 AQY       0.167000
      5 C13         14.7150    -3.7010    -1.3470 cc         1 AQY      -0.163000
      6 C17         16.6100    -4.8110     2.0600 cc         1 AQY      -0.076300
      7 C20         16.9170    -3.9170     5.6740 ca         1 AQY       0.364900
      8 C22         14.7260    -4.4310     5.2780 ca         1 AQY       0.468900
      9 C24         12.2540    -4.7910     5.2910 c          1 AQY       0.631700
     10 C26         11.1040    -4.8860     6.2390 ca         1 AQY      -0.170600
     11 C28          8.7400    -4.7150     6.5890 ca         1 AQY      -0.204000
     12 C2          21.1950    -6.7070     2.1430 ca         1 AQY      -0.116300
     13 C3          20.1040    -6.0580     1.5710 ca         1 AQY      -0.056000
     14 F8          21.9830    -8.0940     3.8830 f          1 AQY      -0.185000
     15 C9          17.7060    -5.4400     1.4650 cd         1 AQY       0.133400
     16 N10         17.6250    -5.3850     0.1040 nd         1 AQY      -0.265600
     17 C11         16.4970    -4.7430    -0.1780 cd         1 AQY      -0.111000
     18 C12         15.8980    -4.3860    -1.3950 cd         1 AQY      -0.020000
     19 C14         14.1570    -3.3770    -0.0860 cc         1 AQY       0.307900
     20 N15         14.6860    -3.6960     1.0690 nd         1 AQY      -0.450800
     21 N16         15.8370    -4.3840     1.0000 na         1 AQY       0.235900
     22 C18         16.2780    -4.5470     3.4570 ca         1 AQY       0.043200
     23 C19         17.2710    -4.1420     4.3560 ca         1 AQY      -0.172000
     24 N21         15.6740    -4.0530     6.1400 nb         1 AQY      -0.726000
     25 O25         12.0880    -4.9150     4.0830 o          1 AQY      -0.574100
     26 C27          9.8220    -4.6290     5.7530 ca         1 AQY      -0.041000
     27 N29          8.8780    -5.0670     7.8990 na         1 AQY       0.448300
     28 O30          7.8380    -5.1410     8.6550 o          1 AQY      -0.503000
     29 C31         10.1210    -5.3490     8.4070 ca         1 AQY      -0.120600
     30 C32         10.1900    -5.7500     9.8360 c3         1 AQY      -0.037800
     31 C33         11.2240    -5.2520     7.5770 ca         1 AQY      -0.066000
     32 C34         14.9740    -4.6920     3.9310 ca         1 AQY      -0.147000
     33 H1          17.6350    -6.9990     3.7000 ha         1 AQY       0.124000
     34 H2          19.5580    -8.1680     4.7520 ha         1 AQY       0.134000
     35 H3          14.2010    -3.3980    -2.2470 ha         1 AQY       0.138000
     36 H4          17.6660    -3.6040     6.3940 h4         1 AQY       0.025100
     37 H5           7.7230    -4.5180     6.2860 h4         1 AQY       0.174000
     38 H6          23.2800    -6.1930     2.2790 hc         1 AQY       0.048367
     39 H7          22.9530    -7.6100     1.2920 hc         1 AQY       0.048367
     40 H8          22.5750    -5.9970     0.6670 hc         1 AQY       0.048367
     41 H9          20.2570    -5.4690     0.6760 ha         1 AQY       0.131000
     42 H10         16.3820    -4.6540    -2.3230 ha         1 AQY       0.150000
     43 H11         13.2280    -2.8260    -0.0210 h4         1 AQY       0.043100
     44 H12         18.2920    -4.0020     4.0340 ha         1 AQY       0.137000
     45 H13         13.4820    -4.3520     6.8620 hn         1 AQY       0.168000
     46 H14          9.6720    -4.3530     4.7190 ha         1 AQY       0.157000
     47 H16          9.7880    -4.9610    10.4760 hc         1 AQY       0.064367
     48 H17          9.5840    -6.6410    10.0140 hc         1 AQY       0.064367
     49 H18         11.2220    -5.9510    10.1160 hc         1 AQY       0.064367
     50 H19         12.1820    -5.5030     8.0110 ha         1 AQY       0.135000
     51 H20         14.1740    -5.0010     3.2840 ha         1 AQY       0.166000
     52 C1          22.5770    -6.6200     1.5610 c3         1 AQY      -0.039800
     53 N23         13.4650    -4.5500     5.8720 ns         1 AQY      -0.316900
@<TRIPOS>BOND
     1     1     2 ar  
     2     1    13 ar  
     3     1    15 1   
     4     2     3 ar  
     5     2    33 1   
     6     3     4 ar  
     7     3    34 1   
     8     4    12 ar  
     9     4    14 1   
    10     5    18 2   
    11     5    19 1   
    12     5    35 1   
    13     6    15 2   
    14     6    21 1   
    15     6    22 1   
    16     7    23 ar  
    17     7    24 ar  
    18     7    36 1   
    19     8    24 ar  
    20     8    32 ar  
    21     8    53 1   
    22     9    10 1   
    23     9    25 2   
    24     9    53 1   
    25    10    26 ar  
    26    10    31 ar  
    27    11    26 ar  
    28    11    27 1   
    29    11    37 1   
    30    12    13 ar  
    31    12    52 1   
    32    13    41 1   
    33    15    16 1   
    34    16    17 2   
    35    17    18 1   
    36    17    21 1   
    37    18    42 1   
    38    19    20 2   
    39    19    43 1   
    40    20    21 1   
    41    22    23 ar  
    42    22    32 ar  
    43    23    44 1   
    44    26    46 1   
    45    27    28 1   
    46    27    29 2   
    47    29    30 1   
    48    29    31 ar  
    49    30    47 1   
    50    30    48 1   
    51    30    49 1   
    52    31    50 1   
    53    32    51 1   
    54    38    52 1   
    55    39    52 1   
    56    40    52 1   
    57    45    53 1   
@<TRIPOS>SUBSTRUCTURE
     1 AQY         1 TEMP              0 ****  ****    0 ROOT
