@<TRIPOS>MOLECULE
AQZ
   80    85     1     0     0
SMALL
No Charge or Current Charge


@<TRIPOS>ATOM
      1 C1          -5.0940    -1.6840    27.2330 c3         1 AQZ       0.143900
      2 O2          -4.7030    -0.5260    26.4760 os         1 AQZ      -0.319100
      3 C3          -4.8340    -0.4550    25.0970 ca         1 AQZ       0.157100
      4 C4          -5.3710    -1.5230    24.3460 ca         1 AQZ      -0.184000
      5 C5          -5.4980    -1.4320    22.9500 ca         1 AQZ       0.061000
      6 N6          -6.0160    -2.4640    22.2520 nb         1 AQZ      -0.205000
      7 C7          -6.1110    -2.3230    20.9150 ca         1 AQZ       0.153900
      8 N8          -5.7370    -1.2510    20.1940 nb         1 AQZ      -0.263000
      9 C9          -5.2280    -0.2120    20.8790 ca         1 AQZ       0.396900
     10 N10         -4.8080     0.8790    20.1190 nu         1 AQZ      -0.950900
     11 C11         -5.0040     1.2340    18.7790 ca         1 AQZ       0.311000
     12 C12         -3.8630     1.5430    18.0180 ca         1 AQZ      -0.158000
     13 C13         -3.9700     1.9080    16.6590 ca         1 AQZ      -0.015000
     14 N14         -2.8540     2.2160    15.8310 ns         1 AQZ      -0.138000
     15 C15         -1.5000     2.3760    16.1010 c          1 AQZ       0.614700
     16 O16         -1.0200     2.2880    17.2270 o          1 AQZ      -0.583100
     17 C17         -0.6240     2.6820    14.8950 ca         1 AQZ      -0.075600
     18 C18         -1.1310     2.7960    13.5790 ca         1 AQZ      -0.210000
     19 C19         -0.2550     3.0850    12.5210 ca         1 AQZ       0.383900
     20 N20          1.0710     3.2630    12.6860 nb         1 AQZ      -0.734000
     21 C21          1.5720     3.1570    13.9270 ca         1 AQZ       0.611900
     22 C22          0.7670     2.8710    15.0480 ca         1 AQZ      -0.176000
     23 N23          2.9700     3.3470    14.0130 nh         1 AQZ      -0.770300
     24 C24          3.6610     4.3910    13.1760 c6         1 AQZ       0.177800
     25 C25          5.1860     4.1210    13.0140 c6         1 AQZ       0.142600
     26 O26          5.8100     3.8950    14.2980 os         1 AQZ      -0.451000
     27 C27          5.2500     2.7540    14.9860 c6         1 AQZ       0.142600
     28 C28          3.7280     2.9560    15.2500 c6         1 AQZ       0.177800
     29 C29         -5.2450     1.9590    16.0720 ca         1 AQZ      -0.165000
     30 C30         -6.3940     1.6740    16.8270 ca         1 AQZ      -0.077000
     31 C31         -6.2910     1.3200    18.1850 ca         1 AQZ      -0.074300
     32 C32         -7.5810     1.0820    18.9700 c3         1 AQZ      -0.040800
     33 C33         -5.0770    -0.2540    22.2880 ca         1 AQZ      -0.165000
     34 C34         -4.5420     0.8230    23.0340 ca         1 AQZ      -0.162000
     35 C35         -4.4170     0.7260    24.4390 ca         1 AQZ       0.120100
     36 O36         -3.8980     1.7600    25.2000 os         1 AQZ      -0.311100
     37 C37         -3.4490     3.0020    24.6210 c3         1 AQZ       0.161600
     38 C38         -2.9210     3.9270    25.7510 c3         1 AQZ       0.171800
     39 N39         -1.7350     3.4260    26.4980 n3         1 AQZ      -0.707600
     40 C40         -1.2810     4.2910    27.6040 c5         1 AQZ       0.155800
     41 C41         -0.0260     3.5240    28.0970 c5         1 AQZ      -0.077900
     42 C42          0.5240     2.8420    26.8040 c5         1 AQZ      -0.077900
     43 C43         -0.5020     3.2330    25.7060 c5         1 AQZ       0.155800
     44 H11         -4.5270    -2.5690    26.9160 h1         1 AQZ       0.046367
     45 H12A        -4.9010    -1.5230    28.3010 h1         1 AQZ       0.046367
     46 H13         -6.1660    -1.8880    27.1100 h1         1 AQZ       0.046367
     47 H4          -5.6990    -2.4370    24.8320 ha         1 AQZ       0.141000
     48 H7          -6.5270    -3.1630    20.3630 h5         1 AQZ       0.044100
     49 H10         -4.0690     1.4060    20.5760 hn         1 AQZ       0.497000
     50 H12         -2.8950     1.4710    18.5000 ha         1 AQZ       0.150000
     51 H14         -3.0960     2.3390    14.8580 hn         1 AQZ       0.157000
     52 H18         -2.1850     2.6670    13.3530 ha         1 AQZ       0.124000
     53 H19         -0.6320     3.1760    11.5020 h4         1 AQZ       0.020100
     54 H22          1.2130     2.8070    16.0340 ha         1 AQZ       0.144000
     55 H241         3.5280     5.3820    13.6360 h1         1 AQZ       0.059700
     56 H242         3.2310     4.4480    12.1660 h1         1 AQZ       0.059700
     57 H251         5.6660     4.9810    12.5250 h1         1 AQZ       0.056450
     58 H252         5.3410     3.2390    12.3760 h1         1 AQZ       0.056450
     59 H271         5.7770     2.6140    15.9400 h1         1 AQZ       0.056450
     60 H272         5.4060     1.8520    14.3770 h1         1 AQZ       0.056450
     61 H281         3.3360     2.0130    15.6580 h1         1 AQZ       0.059700
     62 H282         3.6040     3.7260    16.0250 h1         1 AQZ       0.059700
     63 H29         -5.3520     2.2330    15.0250 ha         1 AQZ       0.112000
     64 H30         -7.3710     1.7390    16.3540 ha         1 AQZ       0.116000
     65 H321        -7.4810     1.3700    20.0230 hc         1 AQZ       0.047700
     66 H322        -8.4100     1.6690    18.5580 hc         1 AQZ       0.047700
     67 H323        -7.8770     0.0270    18.9310 hc         1 AQZ       0.047700
     68 H341        -4.2350     1.7300    22.5240 ha         1 AQZ       0.113000
     69 H371        -4.2790     3.5070    24.1120 h1         1 AQZ       0.035200
     70 H372        -2.6510     2.8260    23.8880 h1         1 AQZ       0.035200
     71 H381        -3.7480     4.0990    26.4530 h1         1 AQZ       0.043200
     72 H382        -2.6850     4.9010    25.3020 h1         1 AQZ       0.043200
     73 H401        -2.0370     4.3980    28.3950 h1         1 AQZ       0.034700
     74 H402        -1.0170     5.2960    27.2440 h1         1 AQZ       0.034700
     75 H411        -0.2980     2.7720    28.8470 hc         1 AQZ       0.047700
     76 H412         0.7040     4.1960    28.5620 hc         1 AQZ       0.047700
     77 H421         0.5700     1.7540    26.9290 hc         1 AQZ       0.047700
     78 H422         1.5350     3.1810    26.5490 hc         1 AQZ       0.047700
     79 H431        -0.2040     4.1630    25.2010 h1         1 AQZ       0.034700
     80 H432        -0.6040     2.4480    24.9450 h1         1 AQZ       0.034700
@<TRIPOS>BOND
     1     1     2 1   
     2     1    44 1   
     3     1    45 1   
     4     1    46 1   
     5     2     3 1   
     6     3     4 ar  
     7     3    35 ar  
     8     4     5 ar  
     9     4    47 1   
    10     5     6 ar  
    11     5    33 ar  
    12     6     7 ar  
    13     7     8 ar  
    14     7    48 1   
    15     8     9 ar  
    16     9    10 1   
    17     9    33 ar  
    18    10    11 1   
    19    10    49 1   
    20    11    12 ar  
    21    11    31 ar  
    22    12    13 ar  
    23    12    50 1   
    24    13    14 1   
    25    13    29 ar  
    26    14    15 1   
    27    14    51 1   
    28    15    16 2   
    29    15    17 1   
    30    17    18 ar  
    31    17    22 ar  
    32    18    19 ar  
    33    18    52 1   
    34    19    20 ar  
    35    19    53 1   
    36    20    21 ar  
    37    21    22 ar  
    38    21    23 1   
    39    22    54 1   
    40    23    24 1   
    41    23    28 1   
    42    24    25 1   
    43    24    55 1   
    44    24    56 1   
    45    25    26 1   
    46    25    57 1   
    47    25    58 1   
    48    26    27 1   
    49    27    28 1   
    50    27    59 1   
    51    27    60 1   
    52    28    61 1   
    53    28    62 1   
    54    29    30 ar  
    55    29    63 1   
    56    30    31 ar  
    57    30    64 1   
    58    31    32 1   
    59    32    65 1   
    60    32    66 1   
    61    32    67 1   
    62    33    34 ar  
    63    34    35 ar  
    64    34    68 1   
    65    35    36 1   
    66    36    37 1   
    67    37    38 1   
    68    37    69 1   
    69    37    70 1   
    70    38    39 1   
    71    38    71 1   
    72    38    72 1   
    73    39    40 1   
    74    39    43 1   
    75    40    41 1   
    76    40    73 1   
    77    40    74 1   
    78    41    42 1   
    79    41    75 1   
    80    41    76 1   
    81    42    43 1   
    82    42    77 1   
    83    42    78 1   
    84    43    79 1   
    85    43    80 1   
@<TRIPOS>SUBSTRUCTURE
     1 AQZ         1 TEMP              0 ****  ****    0 ROOT
