@<TRIPOS>MOLECULE
AQZ
   80    85     1     0     0
SMALL
abcg2


@<TRIPOS>ATOM
      1 C1          -4.3600    -2.0170    26.8620 c3         1 AQZ       0.143900
      2 O2          -4.2200    -0.7360    26.2430 os         1 AQZ      -0.319100
      3 C3          -4.4310    -0.6450    24.9150 ca         1 AQZ       0.157100
      4 C4          -4.7720    -1.6970    24.0990 ca         1 AQZ      -0.184000
      5 C5          -4.9690    -1.5020    22.7150 ca         1 AQZ       0.061000
      6 N6          -5.3220    -2.5730    21.9370 nb         1 AQZ      -0.205000
      7 C7          -5.4890    -2.3250    20.6600 ca         1 AQZ       0.153900
      8 N8          -5.3340    -1.1510    20.0210 nb         1 AQZ      -0.263000
      9 C9          -4.9940    -0.0980    20.7540 ca         1 AQZ       0.396900
     10 N10         -4.8170     1.1040    20.1380 nu         1 AQZ      -0.950900
     11 C11         -4.9670     1.3460    18.7480 ca         1 AQZ       0.311000
     12 C12         -3.8360     1.7640    18.0490 ca         1 AQZ      -0.158000
     13 C13         -3.9270     2.0810    16.6960 ca         1 AQZ      -0.015000
     14 N14         -2.8420     2.5330    15.9250 ns         1 AQZ      -0.138000
     15 C15         -1.5400     2.6860    16.2790 c          1 AQZ       0.614700
     16 O16         -1.0850     2.3900    17.3800 o          1 AQZ      -0.583100
     17 C17         -0.6590     3.2500    15.1980 ca         1 AQZ      -0.075600
     18 C18         -1.1270     4.1320    14.2190 ca         1 AQZ      -0.210000
     19 C19         -0.2020     4.6190    13.3120 ca         1 AQZ       0.383900
     20 N20          1.0870     4.2830    13.3020 nb         1 AQZ      -0.734000
     21 C21          1.5420     3.4160    14.2240 ca         1 AQZ       0.611900
     22 C22          0.6790     2.9000    15.2150 ca         1 AQZ      -0.176000
     23 N23          2.8660     3.0480    14.1420 nh         1 AQZ      -0.770300
     24 C24          3.7930     3.8820    13.3770 c6         1 AQZ       0.177800
     25 C25          5.0090     3.0780    12.9570 c6         1 AQZ       0.142600
     26 O26          5.6490     2.4690    14.0770 os         1 AQZ      -0.451000
     27 C27          4.7420     1.5930    14.7350 c6         1 AQZ       0.142600
     28 C28          3.5060     2.3230    15.2350 c6         1 AQZ       0.177800
     29 C29         -5.1620     1.9560    16.0530 ca         1 AQZ      -0.165000
     30 C30         -6.2760     1.5470    16.7660 ca         1 AQZ      -0.077000
     31 C31         -6.2190     1.2440    18.1280 ca         1 AQZ      -0.074300
     32 C32         -7.4600     0.8620    18.8780 c3         1 AQZ      -0.040800
     33 C33         -4.8060    -0.2100    22.1700 ca         1 AQZ      -0.165000
     34 C34         -4.4760     0.8700    23.0200 ca         1 AQZ      -0.162000
     35 C35         -4.2840     0.6710    24.3650 ca         1 AQZ       0.120100
     36 O36         -3.9630     1.6330    25.2570 os         1 AQZ      -0.311100
     37 C37         -3.7690     2.9670    24.7710 c3         1 AQZ       0.161600
     38 C38         -3.3440     3.8440    25.9270 c3         1 AQZ       0.171800
     39 N39         -2.0570     3.4850    26.4920 n3         1 AQZ      -0.707600
     40 C40         -1.7260     4.2560    27.6920 c5         1 AQZ       0.155800
     41 C41         -0.2440     3.9490    27.9340 c5         1 AQZ      -0.077900
     42 C42          0.3020     3.5700    26.5330 c5         1 AQZ      -0.077900
     43 C43         -0.9120     3.6900    25.6020 c5         1 AQZ       0.155800
     44 H11         -3.6500    -2.7310    26.4400 h1         1 AQZ       0.046367
     45 H12A        -4.1460    -1.8600    27.9150 h1         1 AQZ       0.046367
     46 H13         -5.3770    -2.3960    26.7420 h1         1 AQZ       0.046367
     47 H4          -4.9000    -2.6940    24.4910 ha         1 AQZ       0.141000
     48 H7          -5.7770    -3.1620    20.0310 h5         1 AQZ       0.044100
     49 H10         -4.2670     1.7860    20.6360 hn         1 AQZ       0.497000
     50 H12         -2.8920     1.8350    18.5630 ha         1 AQZ       0.150000
     51 H14         -3.0690     2.7430    14.9640 hn         1 AQZ       0.157000
     52 H18         -2.1520     4.4720    14.1820 ha         1 AQZ       0.124000
     53 H19         -0.5120     5.3290    12.5520 h4         1 AQZ       0.020100
     54 H22          1.0290     2.2400    15.9910 ha         1 AQZ       0.144000
     55 H241         4.1120     4.7390    13.9870 h1         1 AQZ       0.059700
     56 H242         3.2870     4.2640    12.4960 h1         1 AQZ       0.059700
     57 H251         5.7430     3.7330    12.4890 h1         1 AQZ       0.056450
     58 H252         4.7140     2.3020    12.2400 h1         1 AQZ       0.056450
     59 H271         5.2760     1.1530    15.5770 h1         1 AQZ       0.056450
     60 H272         4.4410     0.7920    14.0460 h1         1 AQZ       0.056450
     61 H281         2.8270     1.5780    15.6420 h1         1 AQZ       0.059700
     62 H282         3.7810     3.0150    16.0430 h1         1 AQZ       0.059700
     63 H29         -5.2480     2.1980    15.0010 ha         1 AQZ       0.112000
     64 H30         -7.2300     1.4820    16.2570 ha         1 AQZ       0.116000
     65 H321        -7.4630     1.2960    19.8800 hc         1 AQZ       0.047700
     66 H322        -8.3480     1.2040    18.3460 hc         1 AQZ       0.047700
     67 H323        -7.5270    -0.2210    19.0010 hc         1 AQZ       0.047700
     68 H341        -4.3890     1.8680    22.6200 ha         1 AQZ       0.113000
     69 H371        -4.7070     3.3440    24.3520 h1         1 AQZ       0.035200
     70 H372        -3.0180     2.9600    23.9780 h1         1 AQZ       0.035200
     71 H381        -4.0980     3.7800    26.7160 h1         1 AQZ       0.043200
     72 H382        -3.3440     4.8870    25.5610 h1         1 AQZ       0.043200
     73 H401        -2.3740     3.9730    28.5220 h1         1 AQZ       0.034700
     74 H402        -1.8660     5.3370    27.5090 h1         1 AQZ       0.034700
     75 H411        -0.1340     3.1140    28.6270 hc         1 AQZ       0.047700
     76 H412         0.2730     4.8050    28.3660 hc         1 AQZ       0.047700
     77 H421         0.6820     2.5490    26.5340 hc         1 AQZ       0.047700
     78 H422         1.1130     4.2230    26.2100 hc         1 AQZ       0.047700
     79 H431        -0.9510     4.6950    25.1450 h1         1 AQZ       0.034700
     80 H432        -0.9010     2.9580    24.7950 h1         1 AQZ       0.034700
@<TRIPOS>BOND
     1     1     2 1   
     2     1    44 1   
     3     1    45 1   
     4     1    46 1   
     5     2     3 1   
     6     3     4 ar  
     7     3    35 ar  
     8     4     5 ar  
     9     4    47 1   
    10     5     6 ar  
    11     5    33 ar  
    12     6     7 ar  
    13     7     8 ar  
    14     7    48 1   
    15     8     9 ar  
    16     9    10 1   
    17     9    33 ar  
    18    10    11 1   
    19    10    49 1   
    20    11    12 ar  
    21    11    31 ar  
    22    12    13 ar  
    23    12    50 1   
    24    13    14 1   
    25    13    29 ar  
    26    14    15 1   
    27    14    51 1   
    28    15    16 2   
    29    15    17 1   
    30    17    18 ar  
    31    17    22 ar  
    32    18    19 ar  
    33    18    52 1   
    34    19    20 ar  
    35    19    53 1   
    36    20    21 ar  
    37    21    22 ar  
    38    21    23 1   
    39    22    54 1   
    40    23    24 1   
    41    23    28 1   
    42    24    25 1   
    43    24    55 1   
    44    24    56 1   
    45    25    26 1   
    46    25    57 1   
    47    25    58 1   
    48    26    27 1   
    49    27    28 1   
    50    27    59 1   
    51    27    60 1   
    52    28    61 1   
    53    28    62 1   
    54    29    30 ar  
    55    29    63 1   
    56    30    31 ar  
    57    30    64 1   
    58    31    32 1   
    59    32    65 1   
    60    32    66 1   
    61    32    67 1   
    62    33    34 ar  
    63    34    35 ar  
    64    34    68 1   
    65    35    36 1   
    66    36    37 1   
    67    37    38 1   
    68    37    69 1   
    69    37    70 1   
    70    38    39 1   
    71    38    71 1   
    72    38    72 1   
    73    39    40 1   
    74    39    43 1   
    75    40    41 1   
    76    40    73 1   
    77    40    74 1   
    78    41    42 1   
    79    41    75 1   
    80    41    76 1   
    81    42    43 1   
    82    42    77 1   
    83    42    78 1   
    84    43    79 1   
    85    43    80 1   
@<TRIPOS>SUBSTRUCTURE
     1 AQZ         1 TEMP              0 ****  ****    0 ROOT
