@<TRIPOS>MOLECULE
AR0
   46    46     1     0     0
SMALL
No Charge or Current Charge


@<TRIPOS>ATOM
      1 N           -1.7410     2.1200    -0.3660 n8         1 AR0      -0.890800
      2 C1          -1.6640     0.8130     0.3220 c3         1 AR0       0.134500
      3 C2          -0.2630     0.1430     0.1080 c3         1 AR0       0.130100
      4 O1          -0.1950    -1.1150     0.8050 oh         1 AR0      -0.579800
      5 C3          -2.8480    -0.0830    -0.1380 c3         1 AR0      -0.115400
      6 C4          -4.2550     0.4950     0.1640 c3         1 AR0      -0.096400
      7 C5          -5.3900    -0.4720    -0.2290 c3         1 AR0       0.033300
      8 N2          -6.7020     0.1170     0.0810 nu         1 AR0      -0.412100
      9 C6          -7.9070    -0.4120    -0.1190 cz         1 AR0       0.532300
     10 N3          -8.0520    -1.6110    -0.6570 nv         1 AR0      -0.507200
     11 N4          -8.9890     0.2640     0.2230 nv         1 AR0      -0.507200
     12 C7           0.9160     1.0410     0.5710 c3         1 AR0      -0.010700
     13 N5           2.2480     0.4760     0.2750 na         1 AR0      -0.005100
     14 C8           2.8150     0.6310    -0.9930 ca         1 AR0      -0.045300
     15 C9           4.0900     0.1100    -1.2830 ca         1 AR0      -0.144000
     16 C10          4.8170    -0.5780    -0.2920 ca         1 AR0       0.127700
     17 C11          4.2450    -0.7340     0.9850 ca         1 AR0      -0.144000
     18 C12          2.9680    -0.2070     1.2590 ca         1 AR0      -0.045300
     19 C13          6.1920    -1.1470    -0.5980 c3         1 AR0      -0.232100
     20 C            7.2400    -0.0910    -0.2760 c          1 AR0       0.946600
     21 O            7.5160     0.7270    -1.1440 o          1 AR0      -0.758800
     22 OXT          7.6540    -0.0250     0.8740 o          1 AR0      -0.758800
     23 H           -1.8280     1.9670    -1.3760 hn         1 AR0       0.354300
     24 H1          -1.7770     1.0050     1.3990 h1         1 AR0       0.061700
     25 H3          -2.7590    -0.2790    -1.2150 hc         1 AR0       0.065700
     26 H4          -2.7710    -1.0580     0.3580 hc         1 AR0       0.065700
     27 H5          -4.3280     0.7190     1.2360 hc         1 AR0       0.059200
     28 H6          -4.3930     1.4390    -0.3760 hc         1 AR0       0.059200
     29 H7          -5.3230    -0.6890    -1.3050 h1         1 AR0       0.069200
     30 H8          -5.2670    -1.4170     0.3180 h1         1 AR0       0.069200
     31 H9          -6.6760     1.0410     0.4990 hn         1 AR0       0.322700
     32 H10         -7.2590    -2.1700    -0.9350 hn         1 AR0       0.330950
     33 H11         -8.9590    -2.0270    -0.8150 hn         1 AR0       0.330950
     34 H12         -9.9190    -0.1050     0.0870 hn         1 AR0       0.330950
     35 H13         -8.9430     1.1840     0.6380 hn         1 AR0       0.330950
     36 H14          0.8470     2.0160     0.0720 h1         1 AR0       0.095200
     37 H15          0.8330     1.2310     1.6480 h1         1 AR0       0.095200
     38 H16          2.2370     1.1680    -1.7470 h4         1 AR0       0.168000
     39 H17          4.5130     0.2440    -2.2770 ha         1 AR0       0.186000
     40 H18          4.7880    -1.2620     1.7660 ha         1 AR0       0.186000
     41 H19          2.5080    -0.3230     2.2410 h4         1 AR0       0.168000
     42 H20          6.3380    -2.0230     0.0430 hc         1 AR0       0.074200
     43 H21          6.2220    -1.3860    -1.6670 hc         1 AR0       0.074200
     44 H2          -2.6190     2.5820    -0.1100 hn         1 AR0       0.354300
     45 H24         -0.1420    -0.0320    -0.9710 h1         1 AR0       0.088700
     46 H25         -0.4380    -0.9520     1.7410 ho         1 AR0       0.408000
@<TRIPOS>BOND
     1     1     2 1   
     2     1    23 1   
     3     1    44 1   
     4     2     3 1   
     5     2     5 1   
     6     2    24 1   
     7     3     4 1   
     8     3    12 1   
     9     3    45 1   
    10     4    46 1   
    11     5     6 1   
    12     5    25 1   
    13     5    26 1   
    14     6     7 1   
    15     6    27 1   
    16     6    28 1   
    17     7     8 1   
    18     7    29 1   
    19     7    30 1   
    20     8     9 2   
    21     8    31 1   
    22     9    10 1   
    23     9    11 1   
    24    10    32 1   
    25    10    33 1   
    26    11    34 1   
    27    11    35 1   
    28    12    13 1   
    29    12    36 1   
    30    12    37 1   
    31    13    14 1   
    32    13    18 2   
    33    14    15 ar  
    34    14    38 1   
    35    15    16 ar  
    36    15    39 1   
    37    16    17 ar  
    38    16    19 1   
    39    17    18 ar  
    40    17    40 1   
    41    18    41 1   
    42    19    20 1   
    43    19    42 1   
    44    19    43 1   
    45    20    21 1   
    46    20    22 1   
@<TRIPOS>SUBSTRUCTURE
     1 AR0         1 TEMP              0 ****  ****    0 ROOT
