@<TRIPOS>MOLECULE
AR0
   46    46     1     0     0
SMALL
bcc


@<TRIPOS>ATOM
      1 N           -1.6720     2.2890    -0.3540 n8         1 AR0      -0.890800
      2 C1          -1.6410     0.9870     0.2910 c3         1 AR0       0.134500
      3 C2          -0.2650     0.3460     0.0620 c3         1 AR0       0.130100
      4 O1          -0.1200    -0.8780     0.7370 oh         1 AR0      -0.579800
      5 C3          -2.7570     0.0350    -0.1530 c3         1 AR0      -0.115400
      6 C4          -4.1460     0.5280     0.2280 c3         1 AR0      -0.096400
      7 C5          -5.2170    -0.4400    -0.2430 c3         1 AR0       0.033300
      8 N2          -6.5330     0.0370     0.1480 nu         1 AR0      -0.412100
      9 C6          -7.6690    -0.5840    -0.1350 cz         1 AR0       0.532300
     10 N3          -7.6570    -1.7310    -0.8020 nv         1 AR0      -0.507200
     11 N4          -8.8260    -0.0500     0.2350 nv         1 AR0      -0.507200
     12 C7           0.8550     1.3160     0.4510 c3         1 AR0      -0.010700
     13 N5           2.1620     0.6760     0.2670 na         1 AR0      -0.005100
     14 C8           2.7470     0.7140    -0.9430 ca         1 AR0      -0.045300
     15 C9           3.9260     0.0600    -1.1780 ca         1 AR0      -0.144000
     16 C10          4.5370    -0.6770    -0.1590 ca         1 AR0       0.127700
     17 C11          3.9020    -0.6930     1.0800 ca         1 AR0      -0.144000
     18 C12          2.7200    -0.0170     1.2660 ca         1 AR0      -0.045300
     19 C13          5.8210    -1.3820    -0.3810 c3         1 AR0      -0.232100
     20 C            7.0430    -0.4060    -0.4360 c          1 AR0       0.946600
     21 O            6.7950     0.7890    -0.6600 o          1 AR0      -0.758800
     22 OXT          8.1480    -0.9460    -0.2760 o          1 AR0      -0.758800
     23 H           -1.8170     2.1780    -1.3510 hn         1 AR0       0.354300
     24 H1          -1.7420     1.1630     1.3710 h1         1 AR0       0.061700
     25 H3          -2.6930    -0.0920    -1.2400 hc         1 AR0       0.065700
     26 H4          -2.6000    -0.9540     0.2830 hc         1 AR0       0.065700
     27 H5          -4.2110     0.6390     1.3150 hc         1 AR0       0.059200
     28 H6          -4.3390     1.5120    -0.2090 hc         1 AR0       0.059200
     29 H7          -5.1680    -0.5400    -1.3310 h1         1 AR0       0.069200
     30 H8          -5.0350    -1.4280     0.1900 h1         1 AR0       0.069200
     31 H9          -6.5880     0.8980     0.6710 hn         1 AR0       0.322700
     32 H10         -6.7990    -2.2130    -1.0090 hn         1 AR0       0.330950
     33 H11         -8.5110    -2.2290    -0.9840 hn         1 AR0       0.330950
     34 H12         -9.6960    -0.5280     0.0750 hn         1 AR0       0.330950
     35 H13         -8.8660     0.8280     0.7240 hn         1 AR0       0.330950
     36 H14          0.8250     2.2110    -0.1650 h1         1 AR0       0.095200
     37 H15          0.7710     1.6220     1.4940 h1         1 AR0       0.095200
     38 H16          2.2410     1.2880    -1.7050 h4         1 AR0       0.168000
     39 H17          4.3590     0.1130    -2.1660 ha         1 AR0       0.186000
     40 H18          4.3230    -1.2370     1.9140 ha         1 AR0       0.186000
     41 H19          2.2090    -0.0040     2.2160 h4         1 AR0       0.168000
     42 H20          5.9830    -2.1350     0.3910 hc         1 AR0       0.074200
     43 H21          5.7910    -1.9070    -1.3400 hc         1 AR0       0.074200
     44 H2          -2.4540     2.8330    -0.0140 hn         1 AR0       0.354300
     45 H24         -0.1580     0.1130    -1.0040 h1         1 AR0       0.088700
     46 H25         -0.3990    -0.7670     1.6540 ho         1 AR0       0.408000
@<TRIPOS>BOND
     1     1     2 1   
     2     1    23 1   
     3     1    44 1   
     4     2     3 1   
     5     2     5 1   
     6     2    24 1   
     7     3     4 1   
     8     3    12 1   
     9     3    45 1   
    10     4    46 1   
    11     5     6 1   
    12     5    25 1   
    13     5    26 1   
    14     6     7 1   
    15     6    27 1   
    16     6    28 1   
    17     7     8 1   
    18     7    29 1   
    19     7    30 1   
    20     8     9 2   
    21     8    31 1   
    22     9    10 1   
    23     9    11 1   
    24    10    32 1   
    25    10    33 1   
    26    11    34 1   
    27    11    35 1   
    28    12    13 1   
    29    12    36 1   
    30    12    37 1   
    31    13    14 1   
    32    13    18 2   
    33    14    15 ar  
    34    14    38 1   
    35    15    16 ar  
    36    15    39 1   
    37    16    17 ar  
    38    16    19 1   
    39    17    18 ar  
    40    17    40 1   
    41    18    41 1   
    42    19    20 1   
    43    19    42 1   
    44    19    43 1   
    45    20    21 1   
    46    20    22 1   
@<TRIPOS>SUBSTRUCTURE
     1 AR0         1 TEMP              0 ****  ****    0 ROOT
