@<TRIPOS>MOLECULE
AR1
   63    65     1     0     0
SMALL
abcg2


@<TRIPOS>ATOM
      1 CA           6.0070    -4.8700     1.1570 c          1 AR1       0.604900
      2 OA           7.2220    -4.8540     1.1130 o          1 AR1      -0.584100
      3 N1           5.2140    -3.8000     0.9650 ns         1 AR1      -0.473400
      4 C11          5.6460    -2.5130     0.6780 cc         1 AR1       0.357900
      5 N21          4.7400    -1.5360     0.5030 nc         1 AR1      -0.714000
      6 C31          5.4340    -0.4440     0.2450 cd         1 AR1       0.341000
      7 N41          6.7600    -0.6910     0.2500 na         1 AR1      -0.101500
      8 CN1          7.8610     0.2260     0.0130 c3         1 AR1       0.058900
      9 C51          6.9210    -2.0150     0.5270 cd         1 AR1      -0.211000
     10 C1           4.8180     0.8680    -0.0090 c          1 AR1       0.551600
     11 O1           5.4640     1.8750    -0.2520 o          1 AR1      -0.599100
     12 N2           3.4700     0.8370     0.0560 ns         1 AR1      -0.443400
     13 C12          2.6330     1.9240    -0.1280 cc         1 AR1       0.373900
     14 N22          1.3050     1.7490    -0.0150 nc         1 AR1      -0.711000
     15 C32          0.7660     2.9330    -0.2350 cd         1 AR1       0.334000
     16 N42          1.7080     3.8630    -0.4870 na         1 AR1      -0.100500
     17 CN2          1.5410     5.2760    -0.7800 c3         1 AR1       0.057900
     18 C52          2.9170     3.2390    -0.4230 cd         1 AR1      -0.212000
     19 C2          -0.6850     3.1800    -0.2060 c          1 AR1       0.555600
     20 O2          -1.1800     4.2860    -0.3580 o          1 AR1      -0.598100
     21 N3          -1.4030     2.0570     0.0040 ns         1 AR1      -0.447400
     22 C13         -2.7840     1.9870     0.0650 cc         1 AR1       0.383900
     23 N23         -3.3690     0.7870     0.2270 nc         1 AR1      -0.712000
     24 C33         -4.6680     1.0180     0.2460 cd         1 AR1       0.316000
     25 N43         -4.9350     2.3320     0.1000 na         1 AR1      -0.097500
     26 CN3         -6.2210     3.0040     0.0560 c3         1 AR1       0.055900
     27 C53         -3.7400     2.9760    -0.0170 cd         1 AR1      -0.202000
     28 C3          -5.6810    -0.0430     0.4030 c          1 AR1       0.553600
     29 O3          -6.8800     0.1890     0.4520 o          1 AR1      -0.607100
     30 NT          -5.1530    -1.2760     0.4900 ns         1 AR1      -0.497900
     31 C1T         -5.9560    -2.4550     0.6730 c3         1 AR1       0.097000
     32 C2T         -6.5180    -2.9270    -0.6650 c3         1 AR1       0.056600
     33 N3T         -7.1490    -4.2770    -0.5830 nx         1 AR1      -0.652000
     34 CNT         -8.2580    -4.3400     0.4020 c3         1 AR1       0.072400
     35 CMT         -7.6060    -4.7170    -1.9250 c3         1 AR1       0.072400
     36 HA           5.4230    -5.7780     1.3610 h5         1 AR1       0.020200
     37 HN1          4.2160    -3.9320     1.0250 hn         1 AR1       0.331500
     38 HN11         7.7990     0.6540    -0.9830 h1         1 AR1       0.068033
     39 HN12         7.8630     1.0250     0.7480 h1         1 AR1       0.068033
     40 HN13         8.7870    -0.3350     0.0980 h1         1 AR1       0.068033
     41 H51          7.8930    -2.4680     0.5940 h4         1 AR1       0.191000
     42 HN2          3.0240    -0.0450     0.2690 hn         1 AR1       0.362500
     43 HN21         0.8840     5.4160    -1.6330 h1         1 AR1       0.068367
     44 HN22         1.1340     5.8030     0.0780 h1         1 AR1       0.068367
     45 HN23         2.5180     5.6880    -1.0160 h1         1 AR1       0.068367
     46 H52          3.8380     3.7660    -0.5940 h4         1 AR1       0.192000
     47 HN3         -0.9010     1.1870     0.1220 hn         1 AR1       0.366500
     48 HN31        -6.8220     2.6310    -0.7680 h1         1 AR1       0.069367
     49 HN32        -6.7640     2.8650     0.9870 h1         1 AR1       0.069367
     50 HN33        -6.0390     4.0640    -0.0920 h1         1 AR1       0.069367
     51 H53         -3.6790     4.0410    -0.1400 h4         1 AR1       0.197000
     52 HT          -4.1520    -1.3770     0.4200 hn         1 AR1       0.366500
     53 H1T1        -5.3190    -3.2250     1.1070 h1         1 AR1       0.072200
     54 H1T2        -6.7530    -2.2470     1.3870 h1         1 AR1       0.072200
     55 H2T1        -7.2750    -2.2420    -1.0450 hx         1 AR1       0.108700
     56 H2T2        -5.7150    -3.0040    -1.3970 hx         1 AR1       0.108700
     57 HNT         -6.4280    -4.9350    -0.2820 hn         1 AR1       0.499000
     58 HNT1        -8.7210    -5.3200     0.3440 hx         1 AR1       0.102200
     59 HNT2        -7.8700    -4.1880     1.4040 hx         1 AR1       0.102200
     60 HNT3        -8.9850    -3.5690     0.1600 hx         1 AR1       0.102200
     61 HMT1        -6.7680    -4.6790    -2.6140 hx         1 AR1       0.102200
     62 HMT2        -7.9810    -5.7330    -1.8500 hx         1 AR1       0.102200
     63 HMT3        -8.3970    -4.0520    -2.2600 hx         1 AR1       0.102200
@<TRIPOS>BOND
     1     1     2 2   
     2     1     3 1   
     3     1    36 1   
     4     3     4 1   
     5     3    37 1   
     6     4     5 1   
     7     4     9 2   
     8     5     6 2   
     9     6     7 1   
    10     6    10 1   
    11     7     8 1   
    12     7     9 1   
    13     8    38 1   
    14     8    39 1   
    15     8    40 1   
    16     9    41 1   
    17    10    11 2   
    18    10    12 1   
    19    12    13 1   
    20    12    42 1   
    21    13    14 1   
    22    13    18 2   
    23    14    15 2   
    24    15    16 1   
    25    15    19 1   
    26    16    17 1   
    27    16    18 1   
    28    17    43 1   
    29    17    44 1   
    30    17    45 1   
    31    18    46 1   
    32    19    20 2   
    33    19    21 1   
    34    21    22 1   
    35    21    47 1   
    36    22    23 1   
    37    22    27 2   
    38    23    24 2   
    39    24    25 1   
    40    24    28 1   
    41    25    26 1   
    42    25    27 1   
    43    26    48 1   
    44    26    49 1   
    45    26    50 1   
    46    27    51 1   
    47    28    29 2   
    48    28    30 1   
    49    30    31 1   
    50    30    52 1   
    51    31    32 1   
    52    31    53 1   
    53    31    54 1   
    54    32    33 1   
    55    32    55 1   
    56    32    56 1   
    57    33    34 1   
    58    33    35 1   
    59    33    57 1   
    60    34    58 1   
    61    34    59 1   
    62    34    60 1   
    63    35    61 1   
    64    35    62 1   
    65    35    63 1   
@<TRIPOS>SUBSTRUCTURE
     1 AR1         1 TEMP              0 ****  ****    0 ROOT
