@<TRIPOS>MOLECULE
AR1
   63    65     1     0     0
SMALL
No Charge or Current Charge


@<TRIPOS>ATOM
      1 CA           5.4570    -4.9810     0.9360 c          1 AR1       0.604900
      2 OA           6.6730    -5.1300     0.9490 o          1 AR1      -0.584100
      3 N1           4.8320    -3.7680     0.7590 ns         1 AR1      -0.473400
      4 C11          5.3920    -2.5350     0.5700 cc         1 AR1       0.357900
      5 N21          4.5690    -1.4760     0.4180 nc         1 AR1      -0.714000
      6 C31          5.3750    -0.4160     0.2530 cd         1 AR1       0.341000
      7 N41          6.7110    -0.8340     0.3050 na         1 AR1      -0.101500
      8 CN1          7.9070     0.0130     0.1690 c3         1 AR1       0.058900
      9 C51          6.7120    -2.2030     0.5100 cd         1 AR1      -0.211000
     10 C1           4.8720     0.9990     0.0450 c          1 AR1       0.551600
     11 O1           5.5870     1.9850    -0.1080 o          1 AR1      -0.599100
     12 N2           3.4930     1.0700     0.0450 ns         1 AR1      -0.443400
     13 C12          2.6820     2.1570    -0.1110 cc         1 AR1       0.373900
     14 N22          1.3450     1.9700    -0.0730 nc         1 AR1      -0.711000
     15 C32          0.8060     3.1860    -0.2500 cd         1 AR1       0.334000
     16 N42          1.8300     4.1310    -0.3990 na         1 AR1      -0.100500
     17 CN2          1.6710     5.5790    -0.6150 c3         1 AR1       0.057900
     18 C52          3.0360     3.4580    -0.3080 cd         1 AR1      -0.212000
     19 C2          -0.6860     3.4490    -0.2780 c          1 AR1       0.555600
     20 O2          -1.2040     4.5510    -0.4390 o          1 AR1      -0.598100
     21 N3          -1.4240     2.2980    -0.1000 ns         1 AR1      -0.447400
     22 C13         -2.7800     2.1350    -0.0650 cc         1 AR1       0.383900
     23 N23         -3.2700     0.8900     0.1240 nc         1 AR1      -0.712000
     24 C33         -4.6050     1.0260     0.1140 cd         1 AR1       0.316000
     25 N43         -4.9350     2.3730    -0.0840 na         1 AR1      -0.097500
     26 CN3         -6.2880     2.9490    -0.1590 c3         1 AR1       0.055900
     27 C53         -3.7500     3.0810    -0.1990 cd         1 AR1      -0.202000
     28 C3          -5.5710    -0.1280     0.2930 c          1 AR1       0.553600
     29 O3          -6.7950    -0.0390     0.2900 o          1 AR1      -0.607100
     30 NT          -4.9360    -1.3440     0.4690 ns         1 AR1      -0.497900
     31 C1T         -5.6090    -2.6330     0.6590 c3         1 AR1       0.097000
     32 C2T         -6.4080    -3.0640    -0.5900 c3         1 AR1       0.056600
     33 N3T         -7.0940    -4.4320    -0.4690 nx         1 AR1      -0.652000
     34 CNT         -8.1560    -4.4700     0.6420 c3         1 AR1       0.072400
     35 CMT         -7.6780    -4.8850    -1.8140 c3         1 AR1       0.072400
     36 HA           4.7350    -5.8090     1.0660 h5         1 AR1       0.020200
     37 HN1          3.8230    -3.8060     0.7730 hn         1 AR1       0.331500
     38 HN11         7.9010     0.5080    -0.8100 h1         1 AR1       0.068033
     39 HN12         7.9150     0.7730     0.9600 h1         1 AR1       0.068033
     40 HN13         8.8120    -0.6020     0.2540 h1         1 AR1       0.068033
     41 H51          7.6090    -2.8050     0.5930 h4         1 AR1       0.191000
     42 HN2          3.0410     0.1750     0.1830 hn         1 AR1       0.362500
     43 HN21         1.1120     5.7560    -1.5420 h1         1 AR1       0.068367
     44 HN22         1.1260     6.0200     0.2290 h1         1 AR1       0.068367
     45 HN23         2.6560     6.0550    -0.6940 h1         1 AR1       0.068367
     46 H52          4.0060     3.9330    -0.3870 h4         1 AR1       0.192000
     47 HN3         -0.8590     1.4670     0.0190 hn         1 AR1       0.366500
     48 HN31        -6.8380     2.4940    -0.9920 h1         1 AR1       0.069367
     49 HN32        -6.8240     2.7570     0.7790 h1         1 AR1       0.069367
     50 HN33        -6.2250     4.0320    -0.3200 h1         1 AR1       0.069367
     51 H53         -3.6930     4.1500    -0.3580 h4         1 AR1       0.197000
     52 HT          -3.9190    -1.3060     0.4620 hn         1 AR1       0.366500
     53 H1T1        -4.8530    -3.3950     0.8900 h1         1 AR1       0.072200
     54 H1T2        -6.2840    -2.5520     1.5210 h1         1 AR1       0.072200
     55 H2T1        -7.1710    -2.3100    -0.7980 hx         1 AR1       0.108700
     56 H2T2        -5.7240    -3.0920    -1.4420 hx         1 AR1       0.108700
     57 HNT         -6.3550    -5.1330    -0.2130 hn         1 AR1       0.499000
     58 HNT1        -8.5990    -5.4670     0.6960 hx         1 AR1       0.102200
     59 HNT2        -7.7000    -4.2270     1.6050 hx         1 AR1       0.102200
     60 HNT3        -8.9400    -3.7410     0.4210 hx         1 AR1       0.102200
     61 HMT1        -6.8920    -4.9080    -2.5720 hx         1 AR1       0.102200
     62 HMT2        -8.1110    -5.8840    -1.7140 hx         1 AR1       0.102200
     63 HMT3        -8.4580    -4.1860    -2.1270 hx         1 AR1       0.102200
@<TRIPOS>BOND
     1     1     2 2   
     2     1     3 1   
     3     1    36 1   
     4     3     4 1   
     5     3    37 1   
     6     4     5 1   
     7     4     9 2   
     8     5     6 2   
     9     6     7 1   
    10     6    10 1   
    11     7     8 1   
    12     7     9 1   
    13     8    38 1   
    14     8    39 1   
    15     8    40 1   
    16     9    41 1   
    17    10    11 2   
    18    10    12 1   
    19    12    13 1   
    20    12    42 1   
    21    13    14 1   
    22    13    18 2   
    23    14    15 2   
    24    15    16 1   
    25    15    19 1   
    26    16    17 1   
    27    16    18 1   
    28    17    43 1   
    29    17    44 1   
    30    17    45 1   
    31    18    46 1   
    32    19    20 2   
    33    19    21 1   
    34    21    22 1   
    35    21    47 1   
    36    22    23 1   
    37    22    27 2   
    38    23    24 2   
    39    24    25 1   
    40    24    28 1   
    41    25    26 1   
    42    25    27 1   
    43    26    48 1   
    44    26    49 1   
    45    26    50 1   
    46    27    51 1   
    47    28    29 2   
    48    28    30 1   
    49    30    31 1   
    50    30    52 1   
    51    31    32 1   
    52    31    53 1   
    53    31    54 1   
    54    32    33 1   
    55    32    55 1   
    56    32    56 1   
    57    33    34 1   
    58    33    35 1   
    59    33    57 1   
    60    34    58 1   
    61    34    59 1   
    62    34    60 1   
    63    35    61 1   
    64    35    62 1   
    65    35    63 1   
@<TRIPOS>SUBSTRUCTURE
     1 AR1         1 TEMP              0 ****  ****    0 ROOT
