@<TRIPOS>MOLECULE
AR2
   39    40     1     0     0
SMALL
bcc


@<TRIPOS>ATOM
      1 N           12.4800    23.6320    -2.4090 n8         1 AR2      -0.904800
      2 CA          11.1500    23.0360    -2.4150 c3         1 AR2       0.098500
      3 CB          11.1850    21.5950    -2.9060 c3         1 AR2      -0.060400
      4 CG          11.6370    21.4850    -4.3550 c3         1 AR2      -0.086400
      5 CD          11.5560    20.0510    -4.8550 c3         1 AR2       0.217800
      6 NE          11.9960    19.9680    -6.2290 nu         1 AR2      -0.843200
      7 CZ          12.0220    18.7620    -6.8780 c2         1 AR2       0.786100
      8 NH1         11.8310    17.6710    -6.2330 n2         1 AR2      -0.892100
      9 NH2         12.2360    18.8750    -8.2370 nv         1 AR2      -0.959800
     10 N5           9.9590    25.5070    -1.3810 nc         1 AR2      -0.509100
     11 S5           9.4890    24.6830     1.0240 ss         1 AR2      -0.064100
     12 C5          10.0450    24.4770    -0.6120 cd         1 AR2       0.240200
     13 C61          9.4290    26.5740    -0.7110 ca         1 AR2       0.048400
     14 C62          9.1050    26.3230     0.6360 ca         1 AR2      -0.053100
     15 C63          8.5630    27.3100     1.4500 ca         1 AR2      -0.088000
     16 C64          8.3350    28.5660     0.9110 ca         1 AR2      -0.105600
     17 C65          8.6530    28.8140    -0.4370 ca         1 AR2      -0.100000
     18 C66          9.1950    27.8430    -1.2480 ca         1 AR2      -0.106000
     19 C1           7.7410    29.6780     1.7790 c          1 AR2       0.923200
     20 O1           7.5080    30.7550     1.2010 o          1 AR2      -0.813300
     21 O2           7.5490    29.4030     2.9770 o          1 AR2      -0.813300
     22 C           10.5550    23.1460    -1.0210 c          1 AR2       0.477800
     23 H           12.4350    24.6250    -2.2210 hn         1 AR2       0.358300
     24 HN2         13.0630    23.2110    -1.6960 hn         1 AR2       0.358300
     25 HA          10.5330    23.6260    -3.0980 h1         1 AR2       0.092700
     26 HB1         11.8390    20.9970    -2.2640 hc         1 AR2       0.050200
     27 HB2         10.1820    21.1700    -2.8080 hc         1 AR2       0.050200
     28 HG1         11.0070    22.1260    -4.9810 hc         1 AR2       0.050200
     29 HG2         12.6600    21.8510    -4.4610 hc         1 AR2       0.050200
     30 HD1         12.1930    19.4120    -4.2400 h1         1 AR2       0.049700
     31 HD2         10.5310    19.6770    -4.7350 h1         1 AR2       0.049700
     32 HE          11.7490    20.7620    -6.8010 hn         1 AR2       0.412800
     33 HH11        11.9600    16.8690    -6.8390 hn         1 AR2       0.370400
     34 HH21        12.5180    18.0240    -8.6980 hn         1 AR2       0.393800
     35 HH22        12.7910    19.6620    -8.5370 hn         1 AR2       0.393800
     36 H63          8.3210    27.1110     2.4850 ha         1 AR2       0.163000
     37 H65          8.4660    29.8000    -0.8400 ha         1 AR2       0.156000
     38 H66          9.4410    28.0430    -2.2830 ha         1 AR2       0.127000
     39 O           10.5330    22.2470    -0.2100 o          1 AR2      -0.518100
@<TRIPOS>BOND
     1     1     2 1   
     2     1    23 1   
     3     1    24 1   
     4     2     3 1   
     5     2    22 1   
     6     2    25 1   
     7     3     4 1   
     8     3    26 1   
     9     3    27 1   
    10     4     5 1   
    11     4    28 1   
    12     4    29 1   
    13     5     6 1   
    14     5    30 1   
    15     5    31 1   
    16     6     7 1   
    17     6    32 1   
    18     7     8 2   
    19     7     9 1   
    20     8    33 1   
    21     9    34 1   
    22     9    35 1   
    23    10    12 2   
    24    10    13 1   
    25    11    12 1   
    26    11    14 1   
    27    12    22 1   
    28    13    14 ar  
    29    13    18 ar  
    30    14    15 ar  
    31    15    16 ar  
    32    15    36 1   
    33    16    17 ar  
    34    16    19 1   
    35    17    18 ar  
    36    17    37 1   
    37    18    38 1   
    38    19    20 1   
    39    19    21 1   
    40    22    39 2   
@<TRIPOS>SUBSTRUCTURE
     1 AR2         1 TEMP              0 ****  ****    0 ROOT
