@<TRIPOS>MOLECULE
AR2
   39    40     1     0     0
SMALL
No Charge or Current Charge


@<TRIPOS>ATOM
      1 N           14.1550    22.4660    -1.6940 n8         1 AR2      -1.015200
      2 CA          12.7570    23.0290    -1.7220 c3         1 AR2       0.098500
      3 CB          11.7860    22.0250    -2.4050 c3         1 AR2      -0.060400
      4 CG          12.0900    21.7600    -3.9010 c3         1 AR2      -0.086400
      5 CD          11.0770    20.7980    -4.5550 c3         1 AR2       0.217800
      6 NE          11.4100    20.5790    -5.9700 nu         1 AR2      -0.898400
      7 CZ          10.7200    19.7950    -6.7810 c2         1 AR2       0.786100
      8 NH1          9.6910    19.1650    -6.4720 n2         1 AR2      -0.892100
      9 NH2         11.2690    19.9150    -7.9620 nv         1 AR2      -1.070200
     10 N5          10.5970    25.0690    -1.4220 nc         1 AR2      -0.509100
     11 S5          10.4360    25.0570     1.2690 ss         1 AR2       0.062800
     12 C5          11.1050    24.5170    -0.2980 cd         1 AR2       0.240200
     13 C61          9.6180    25.9720    -1.0260 ca         1 AR2       0.048400
     14 C62          9.3920    26.1030     0.3280 ca         1 AR2      -0.180000
     15 C63          8.4300    26.9820     0.8490 ca         1 AR2      -0.070000
     16 C64          7.6570    27.7680    -0.0400 ca         1 AR2      -0.105600
     17 C65          7.8880    27.6340    -1.4340 ca         1 AR2      -0.082000
     18 C66          8.8630    26.7420    -1.9240 ca         1 AR2      -0.088000
     19 C1           6.6060    28.7310     0.4880 c          1 AR2       0.712600
     20 O1           5.9610    29.3910    -0.3150 o          1 AR2      -0.708000
     21 O2           6.4410    28.8120     1.6980 o          1 AR2      -0.708000
     22 C           12.1960    23.4880    -0.3250 c          1 AR2       0.477800
     23 H           14.7930    23.1610    -1.2830 hn         1 AR2       0.413500
     24 HN2         14.1870    21.7010    -1.0080 hn         1 AR2       0.413500
     25 HA          12.7810    23.9360    -2.3450 h1         1 AR2       0.092700
     26 HB1         11.8000    21.0750    -1.8550 hc         1 AR2       0.050200
     27 HB2         10.7610    22.4090    -2.3290 hc         1 AR2       0.050200
     28 HG1         12.0830    22.7140    -4.4420 hc         1 AR2       0.050200
     29 HG2         13.0970    21.3380    -4.0020 hc         1 AR2       0.050200
     30 HD1         11.0890    19.8410    -4.0140 h1         1 AR2       0.049700
     31 HD2         10.0670    21.2230    -4.4670 h1         1 AR2       0.049700
     32 HE          11.8210    21.3600    -6.4630 hn         1 AR2       0.468000
     33 HH11         9.3400    18.7020    -7.3160 hn         1 AR2       0.370400
     34 HH21        10.9110    19.2480    -8.6310 hn         1 AR2       0.449000
     35 HH22        12.2770    19.9220    -7.9030 hn         1 AR2       0.449000
     36 H63          8.2860    27.0520     1.9260 ha         1 AR2       0.145000
     37 H65          7.3110    28.2240    -2.1440 ha         1 AR2       0.138000
     38 H66          9.0290    26.6500    -2.9940 ha         1 AR2       0.109000
     39 O           12.6640    23.0130     0.7110 o          1 AR2      -0.518100
@<TRIPOS>BOND
     1     1     2 1   
     2     1    23 1   
     3     1    24 1   
     4     2     3 1   
     5     2    22 1   
     6     2    25 1   
     7     3     4 1   
     8     3    26 1   
     9     3    27 1   
    10     4     5 1   
    11     4    28 1   
    12     4    29 1   
    13     5     6 1   
    14     5    30 1   
    15     5    31 1   
    16     6     7 1   
    17     6    32 1   
    18     7     8 2   
    19     7     9 1   
    20     8    33 1   
    21     9    34 1   
    22     9    35 1   
    23    10    12 2   
    24    10    13 1   
    25    11    12 1   
    26    11    14 1   
    27    12    22 1   
    28    13    14 ar  
    29    13    18 ar  
    30    14    15 ar  
    31    15    16 ar  
    32    15    36 1   
    33    16    17 ar  
    34    16    19 1   
    35    17    18 ar  
    36    17    37 1   
    37    18    38 1   
    38    19    20 1   
    39    19    21 1   
    40    22    39 2   
@<TRIPOS>SUBSTRUCTURE
     1 AR2         1 TEMP              0 ****  ****    0 ROOT
