@<TRIPOS>MOLECULE
AR3
   30    31     1     0     0
SMALL
abcg2


@<TRIPOS>ATOM
      1 O5           2.3150    -0.9310    -3.5530 oh         1 AR3      -0.699000
      2 C5           1.5440     0.1650    -3.1310 c3         1 AR3       0.169600
      3 C4           0.2390    -0.3320    -2.5640 c5         1 AR3       0.127300
      4 O4           0.4730    -1.0840    -1.3740 os         1 AR3      -0.442000
      5 C1          -0.5830    -0.9350    -0.4700 c5         1 AR3       0.329700
      6 N1          -0.0680    -0.4620     0.8140 n          1 AR3      -0.314000
      7 C6           1.0010     0.3630     0.8810 cc         1 AR3       0.035600
      8 C7           1.4370     0.8620     2.0540 cd         1 AR3      -0.494600
      9 C8           0.7040     0.4810     3.2190 cd         1 AR3       0.787500
     10 N3          -0.3420    -0.3190     3.1560 nc         1 AR3      -0.771100
     11 C2          -0.7740    -0.8100     1.9770 c          1 AR3       0.727400
     12 O2          -1.7470    -1.5480     1.8870 o          1 AR3      -0.552000
     13 N4           1.0790     0.9390     4.4120 nv         1 AR3      -1.038200
     14 C9          -1.5720     0.0610    -1.1080 c5         1 AR3       0.133300
     15 O1          -2.1550     0.8750    -0.1370 oh         1 AR3      -0.686000
     16 C3          -0.7090     0.7850    -2.1320 c5         1 AR3       0.090300
     17 O3          -1.4990     1.3100    -3.1620 oh         1 AR3      -0.703000
     18 H5           3.1380    -0.5970    -3.9210 ho         1 AR3       0.507000
     19 H5'1         1.3060     0.8430    -3.9620 h1         1 AR3       0.019700
     20 H5'2         2.0640     0.7670    -2.3730 h1         1 AR3       0.019700
     21 H4          -0.2660    -0.9640    -3.3080 h1         1 AR3       0.081700
     22 H1          -1.0550    -1.8970    -0.2780 h2         1 AR3       0.123700
     23 H6           1.5120     0.5880    -0.0430 h4         1 AR3       0.199000
     24 H7           2.2990     1.5100     2.1000 ha         1 AR3       0.198000
     25 HN41         0.5640     0.6840     5.2370 hn         1 AR3       0.500000
     26 HN42         1.8730     1.5450     4.5190 hn         1 AR3       0.500000
     27 H2          -2.3260    -0.5220    -1.6550 h1         1 AR3       0.067700
     28 HO1         -2.8980     1.3380    -0.5360 ho         1 AR3       0.521000
     29 H3          -0.1380     1.5800    -1.6280 h1         1 AR3       0.051700
     30 H8          -0.9780     1.9430    -3.6650 ho         1 AR3       0.512000
@<TRIPOS>BOND
     1     1     2 1   
     2     1    18 1   
     3     2     3 1   
     4     2    19 1   
     5     2    20 1   
     6     3     4 1   
     7     3    16 1   
     8     3    21 1   
     9     4     5 1   
    10     5     6 1   
    11     5    14 1   
    12     5    22 1   
    13     6     7 1   
    14     6    11 1   
    15     7     8 2   
    16     7    23 1   
    17     8     9 1   
    18     8    24 1   
    19     9    10 2   
    20     9    13 1   
    21    10    11 1   
    22    11    12 2   
    23    13    25 1   
    24    13    26 1   
    25    14    15 1   
    26    14    16 1   
    27    14    27 1   
    28    15    28 1   
    29    16    17 1   
    30    16    29 1   
    31    17    30 1   
@<TRIPOS>SUBSTRUCTURE
     1 AR3         1 TEMP              0 ****  ****    0 ROOT
