@<TRIPOS>MOLECULE
AR3
   30    31     1     0     0
SMALL
No Charge or Current Charge


@<TRIPOS>ATOM
      1 O5           2.0570    -1.3340    -3.9840 oh         1 AR3      -0.699000
      2 C5           1.4470    -0.1100    -3.5370 c3         1 AR3       0.169600
      3 C4           0.2390    -0.3910    -2.6000 c5         1 AR3       0.127300
      4 O4           0.6940    -0.8840    -1.3170 os         1 AR3      -0.442000
      5 C1          -0.4320    -0.8090    -0.4120 c5         1 AR3       0.329700
      6 N1           0.0260    -0.3860     0.9430 n          1 AR3      -0.314000
      7 C6           0.8350     0.7360     1.1040 cc         1 AR3       0.035600
      8 C7           1.1860     1.1260     2.3750 cd         1 AR3      -0.494600
      9 C8           0.6830     0.3580     3.4430 cd         1 AR3       0.787500
     10 N3          -0.0860    -0.6680     3.3100 nc         1 AR3      -0.771100
     11 C2          -0.4600    -1.0880     2.0610 c          1 AR3       0.727400
     12 O2          -1.1980    -2.0540     1.9540 o          1 AR3      -0.552000
     13 N4           0.9750     0.6820     4.6860 nv         1 AR3      -1.038200
     14 C9          -1.4430     0.2430    -1.0360 c5         1 AR3       0.133300
     15 O1          -1.9880     1.2480    -0.1580 oh         1 AR3      -0.686000
     16 C3          -0.5820     0.8650    -2.1810 c5         1 AR3       0.090300
     17 O3          -1.3980     1.4300    -3.2210 oh         1 AR3      -0.703000
     18 H5           2.8500    -1.0830    -4.5140 ho         1 AR3       0.507000
     19 H5'1         1.0940     0.4650    -4.4030 h1         1 AR3       0.019700
     20 H5'2         2.1780     0.5110    -3.0010 h1         1 AR3       0.019700
     21 H4          -0.4080    -1.1450    -3.0710 h1         1 AR3       0.081700
     22 H1          -0.9150    -1.7920    -0.3340 h2         1 AR3       0.123700
     23 H6           1.1390     1.2100     0.1750 h4         1 AR3       0.199000
     24 H7           1.8240     1.9830     2.5510 ha         1 AR3       0.198000
     25 HN41         0.3590     0.2520     5.3630 hn         1 AR3       0.500000
     26 HN42         1.1960     1.6550     4.8480 hn         1 AR3       0.500000
     27 H2          -2.2720    -0.3220    -1.4850 h1         1 AR3       0.067700
     28 HO1         -2.4340     1.9070    -0.7420 ho         1 AR3       0.521000
     29 H3           0.0920     1.6340    -1.7780 h1         1 AR3       0.051700
     30 H8          -0.8200     1.9990    -3.7840 ho         1 AR3       0.512000
@<TRIPOS>BOND
     1     1     2 1   
     2     1    18 1   
     3     2     3 1   
     4     2    19 1   
     5     2    20 1   
     6     3     4 1   
     7     3    16 1   
     8     3    21 1   
     9     4     5 1   
    10     5     6 1   
    11     5    14 1   
    12     5    22 1   
    13     6     7 1   
    14     6    11 1   
    15     7     8 2   
    16     7    23 1   
    17     8     9 1   
    18     8    24 1   
    19     9    10 2   
    20     9    13 1   
    21    10    11 1   
    22    11    12 2   
    23    13    25 1   
    24    13    26 1   
    25    14    15 1   
    26    14    16 1   
    27    14    27 1   
    28    15    28 1   
    29    16    17 1   
    30    16    29 1   
    31    17    30 1   
@<TRIPOS>SUBSTRUCTURE
     1 AR3         1 TEMP              0 ****  ****    0 ROOT
