@<TRIPOS>MOLECULE
AR6
   57    60     1     0     0
SMALL
bcc


@<TRIPOS>ATOM
      1 N1          -7.3520     2.7440    -1.2740 nb         1 AR6      -0.853000
      2 C2          -7.5530     2.0710    -0.1440 ca         1 AR6       0.667900
      3 N3          -6.7490     1.2080     0.4520 nb         1 AR6      -0.735000
      4 C4          -5.6130     1.0450    -0.2230 ca         1 AR6       0.431800
      5 C5          -5.2610     1.6770    -1.4060 ca         1 AR6      -0.207200
      6 C6          -6.2050     2.5720    -1.9390 ca         1 AR6       0.756200
      7 N6          -6.0060     3.2360    -3.0820 nv         1 AR6      -0.964500
      8 N7          -4.0130     1.2830    -1.8150 nc         1 AR6      -0.562100
      9 C8          -3.6220     0.4340    -0.9090 cd         1 AR6       0.469700
     10 N9          -4.5490     0.2480     0.0850 na         1 AR6      -0.266000
     11 PA           0.2920    -1.1940    -0.3110 p5         1 AR6       1.463800
     12 PB           2.1400     1.0060    -0.6430 p5         1 AR6       1.455800
     13 C1          -4.4560    -0.6420     1.2180 c5         1 AR6       0.272800
     14 O1A          1.1120    -2.4250    -0.5270 o          1 AR6      -0.852500
     15 O1B          1.5830     2.3950    -0.6120 o          1 AR6      -0.850000
     16 C1D          7.5450    -0.0710    -0.1170 c5         1 AR6       0.306900
     17 O1D          8.0980    -1.2380     0.3760 oh         1 AR6      -0.617800
     18 C7          -4.7090    -2.1100     0.8740 c5         1 AR6       0.044100
     19 O2          -6.0790    -2.3780     0.8920 oh         1 AR6      -0.583800
     20 O2A         -0.6170    -0.6930    -1.3940 o          1 AR6      -0.852500
     21 O2B          2.4540     0.3430    -1.9470 o          1 AR6      -0.850000
     22 C2D          8.1510     1.1420     0.5900 c5         1 AR6       0.078100
     23 O2D          8.3920     0.8970     1.9490 oh         1 AR6      -0.570800
     24 C3          -3.8950    -2.8140     1.9620 c5         1 AR6       0.074100
     25 O3          -4.5720    -2.7920     3.1920 oh         1 AR6      -0.591800
     26 O3A          1.2080     0.0260     0.2870 os         1 AR6      -0.684800
     27 C3D          7.0000     2.1350     0.4770 c5         1 AR6       0.107100
     28 O3D          7.0040     3.1890     1.3930 oh         1 AR6      -0.555800
     29 C9          -2.6820    -1.9000     2.0500 c5         1 AR6       0.134100
     30 O4          -3.1610    -0.5880     1.7380 os         1 AR6      -0.362600
     31 C4D          5.7860     1.2320     0.7050 c5         1 AR6       0.149100
     32 O4D          6.1520    -0.0170     0.1430 os         1 AR6      -0.385600
     33 C10         -1.5930    -2.3240     1.0830 c3         1 AR6       0.190400
     34 O5          -0.5700    -1.3560     1.0850 os         1 AR6      -0.533200
     35 C5D          4.5380     1.7660     0.0440 c3         1 AR6       0.205400
     36 O5D          3.4460     0.9250     0.3540 os         1 AR6      -0.542200
     37 H2          -8.5010     2.2600     0.3480 h5         1 AR6       0.020100
     38 HN6         -6.6590     3.9460    -3.3650 hn         1 AR6       0.439300
     39 HN6A        -5.1050     3.2260    -3.5270 hn         1 AR6       0.439300
     40 H8          -2.6580    -0.0630    -0.9100 h5         1 AR6       0.160800
     41 H1          -5.1980    -0.2930     1.9450 h2         1 AR6       0.092700
     42 H6          -4.2690    -2.3330    -0.1060 h1         1 AR6       0.073700
     43 HO2         -6.2430    -3.1830     0.3900 ho         1 AR6       0.399000
     44 HO2D         8.9410     0.1090     2.0200 ho         1 AR6       0.407000
     45 H3          -3.6160    -3.8360     1.6690 h1         1 AR6       0.048700
     46 HO3         -5.4760    -3.0900     3.0390 ho         1 AR6       0.402000
     47 H3D          6.9780     2.5040    -0.5590 h1         1 AR6       0.035700
     48 HO3D         7.6320     3.8540     1.0940 ho         1 AR6       0.384000
     49 H4          -2.2770    -1.8790     3.0660 h1         1 AR6       0.093700
     50 H4D          5.6100     1.1250     1.7840 h1         1 AR6       0.084700
     51 H5          -1.2120    -3.3000     1.4030 h1         1 AR6       0.011200
     52 H5'A        -2.0170    -2.4600     0.0800 h1         1 AR6       0.011200
     53 H5D          4.3600     2.7860     0.4030 h1         1 AR6       0.018200
     54 H5DA         4.7090     1.8240    -1.0390 h1         1 AR6       0.018200
     55 HD1          7.9760    -1.9500    -0.2590 ho         1 AR6       0.423000
     56 H1D          7.7000     0.0060    -1.2020 h2         1 AR6       0.027700
     57 H2D          9.0560     1.4840     0.0710 h1         1 AR6       0.018700
@<TRIPOS>BOND
     1     1     2 ar  
     2     1     6 ar  
     3     2     3 ar  
     4     2    37 1   
     5     3     4 ar  
     6     4     5 ar  
     7     4    10 1   
     8     5     6 ar  
     9     5     8 1   
    10     6     7 1   
    11     7    38 1   
    12     7    39 1   
    13     8     9 2   
    14     9    10 1   
    15     9    40 1   
    16    10    13 1   
    17    11    14 1   
    18    11    20 1   
    19    11    26 1   
    20    11    34 1   
    21    12    15 1   
    22    12    21 1   
    23    12    26 1   
    24    12    36 1   
    25    13    18 1   
    26    13    30 1   
    27    13    41 1   
    28    16    17 1   
    29    16    22 1   
    30    16    32 1   
    31    16    56 1   
    32    17    55 1   
    33    18    19 1   
    34    18    24 1   
    35    18    42 1   
    36    19    43 1   
    37    22    23 1   
    38    22    27 1   
    39    22    57 1   
    40    23    44 1   
    41    24    25 1   
    42    24    29 1   
    43    24    45 1   
    44    25    46 1   
    45    27    28 1   
    46    27    31 1   
    47    27    47 1   
    48    28    48 1   
    49    29    30 1   
    50    29    33 1   
    51    29    49 1   
    52    31    32 1   
    53    31    35 1   
    54    31    50 1   
    55    33    34 1   
    56    33    51 1   
    57    33    52 1   
    58    35    36 1   
    59    35    53 1   
    60    35    54 1   
@<TRIPOS>SUBSTRUCTURE
     1 AR6         1 TEMP              0 ****  ****    0 ROOT
