@<TRIPOS>MOLECULE
AR6
   57    60     1     0     0
SMALL
No Charge or Current Charge


@<TRIPOS>ATOM
      1 N1          -7.3490     1.7390    -1.5420 nb         1 AR6      -0.327000
      2 C2          -7.2290     1.3180    -0.2610 ca         1 AR6       0.141900
      3 N3          -6.0900     0.9280     0.3590 nb         1 AR6      -0.209000
      4 C4          -4.9670     0.9680    -0.3870 ca         1 AR6       0.103500
      5 C5          -4.9790     1.3820    -1.6950 ca         1 AR6      -0.076600
      6 C6          -6.2160     1.7670    -2.2600 ca         1 AR6       0.427900
      7 N6          -6.3400     2.1970    -3.5440 nv         1 AR6      -1.074900
      8 N7          -3.7150     1.3620    -2.2720 nc         1 AR6      -0.562100
      9 C8          -2.9480     0.9160    -1.2550 cd         1 AR6       0.469700
     10 N9          -3.6700     0.6510    -0.0730 na         1 AR6      -0.295300
     11 PA           0.4250    -2.0510    -1.3680 p5         1 AR6       1.463800
     12 PB           2.3260    -0.3410    -0.7390 p5         1 AR6       1.455800
     13 C1          -3.1260     0.2090     1.2100 c5         1 AR6       0.325300
     14 O1A          0.7480    -3.3100    -0.6330 o          1 AR6      -0.852500
     15 O1B          2.5100     0.5330    -1.9360 o          1 AR6      -0.850000
     16 C1D          6.8220     1.0160    -0.3070 c5         1 AR6       0.353300
     17 O1D          7.1660    -0.3410    -0.5570 oh         1 AR6      -0.740000
     18 C7          -3.8520    -1.0220     1.8870 c5         1 AR6       0.067300
     19 O2          -4.5860    -0.6920     3.0880 oh         1 AR6      -0.706000
     20 O2A          0.8980    -2.0740    -2.7840 o          1 AR6      -0.852500
     21 O2B          3.3010    -1.4690    -0.6600 o          1 AR6      -0.850000
     22 C2D          7.1270     1.3940     1.1970 c5         1 AR6       0.101300
     23 O2D          7.4200     0.2100     1.9600 oh         1 AR6      -0.693000
     24 C3          -2.6710    -1.9900     2.2170 c5         1 AR6       0.097300
     25 O3          -2.1780    -1.6970     3.5280 oh         1 AR6      -0.714000
     26 O3A          0.8140    -0.7500    -0.5750 os         1 AR6      -0.684800
     27 C3D          5.7640     2.0080     1.6380 c5         1 AR6       0.130300
     28 O3D          5.6120     1.9180     3.0580 oh         1 AR6      -0.678000
     29 C9          -1.6630    -1.6310     1.0830 c5         1 AR6       0.157300
     30 O4          -1.7470    -0.1840     1.0430 os         1 AR6      -0.409000
     31 C4D          4.7910     1.1040     0.8250 c5         1 AR6       0.172300
     32 O4D          5.4060     1.1550    -0.4800 os         1 AR6      -0.432000
     33 C10         -2.0230    -2.2750    -0.3000 c3         1 AR6       0.213600
     34 O5          -1.1720    -1.8120    -1.3670 os         1 AR6      -0.556400
     35 C5D          3.3220     1.6200     0.7800 c3         1 AR6       0.228600
     36 O5D          2.3930     0.5340     0.6150 os         1 AR6      -0.565400
     37 H2          -8.1410     1.2900     0.3320 h5         1 AR6       0.020100
     38 HN6         -7.1750     2.7190    -3.7950 hn         1 AR6       0.494500
     39 HN6A        -5.4830     2.4340    -4.0390 hn         1 AR6       0.494500
     40 H8          -1.8730     0.7680    -1.2990 h5         1 AR6       0.160800
     41 H1          -3.1690     1.0860     1.8680 h2         1 AR6       0.092700
     42 H6          -4.5220    -1.5010     1.1580 h1         1 AR6       0.073700
     43 HO2         -5.4220    -0.2450     2.8110 ho         1 AR6       0.498000
     44 HO2D         7.4980    -0.4770     1.2440 ho         1 AR6       0.506000
     45 H3          -2.9870    -3.0410     2.1570 h1         1 AR6       0.048700
     46 HO3         -2.9470    -1.2210     3.9340 ho         1 AR6       0.501000
     47 H3D          5.6800     3.0540     1.3100 h1         1 AR6       0.035700
     48 HO3D         6.2450     1.1990     3.3070 ho         1 AR6       0.483000
     49 H4          -0.6440    -1.9290     1.3610 h1         1 AR6       0.093700
     50 H4D          4.8040     0.0710     1.2020 h1         1 AR6       0.084700
     51 H5          -1.9480    -3.3660    -0.2060 h1         1 AR6       0.011200
     52 H5'A        -3.0680    -2.0540    -0.5500 h1         1 AR6       0.011200
     53 H5D          3.1040     2.1320     1.7260 h1         1 AR6       0.018200
     54 H5DA         3.2130     2.3610    -0.0220 h1         1 AR6       0.018200
     55 HD1          6.5930    -0.5980    -1.3150 ho         1 AR6       0.522000
     56 H1D          7.3460     1.6800    -1.0060 h2         1 AR6       0.027700
     57 H2D          7.9470     2.1210     1.2760 h1         1 AR6       0.018700
@<TRIPOS>BOND
     1     1     2 ar  
     2     1     6 ar  
     3     2     3 ar  
     4     2    37 1   
     5     3     4 ar  
     6     4     5 ar  
     7     4    10 1   
     8     5     6 ar  
     9     5     8 1   
    10     6     7 1   
    11     7    38 1   
    12     7    39 1   
    13     8     9 2   
    14     9    10 1   
    15     9    40 1   
    16    10    13 1   
    17    11    14 1   
    18    11    20 1   
    19    11    26 1   
    20    11    34 1   
    21    12    15 1   
    22    12    21 1   
    23    12    26 1   
    24    12    36 1   
    25    13    18 1   
    26    13    30 1   
    27    13    41 1   
    28    16    17 1   
    29    16    22 1   
    30    16    32 1   
    31    16    56 1   
    32    17    55 1   
    33    18    19 1   
    34    18    24 1   
    35    18    42 1   
    36    19    43 1   
    37    22    23 1   
    38    22    27 1   
    39    22    57 1   
    40    23    44 1   
    41    24    25 1   
    42    24    29 1   
    43    24    45 1   
    44    25    46 1   
    45    27    28 1   
    46    27    31 1   
    47    27    47 1   
    48    28    48 1   
    49    29    30 1   
    50    29    33 1   
    51    29    49 1   
    52    31    32 1   
    53    31    35 1   
    54    31    50 1   
    55    33    34 1   
    56    33    51 1   
    57    33    52 1   
    58    35    36 1   
    59    35    53 1   
    60    35    54 1   
@<TRIPOS>SUBSTRUCTURE
     1 AR6         1 TEMP              0 ****  ****    0 ROOT
