@<TRIPOS>MOLECULE
AR7
   29    28     1     0     0
SMALL
bcc


@<TRIPOS>ATOM
      1 N           62.0080    17.7730    60.5080 n8         1 AR7      -0.896800
      2 CA          61.1650    17.0850    61.4760 c3         1 AR7       0.177500
      3 C           62.0340    16.0960    62.2500 c3         1 AR7       0.345900
      4 O           63.0730    16.8170    62.8530 oh         1 AR7      -0.615800
      5 CB          60.0330    16.3560    60.7560 c3         1 AR7      -0.070400
      6 CG          59.1150    17.2830    59.9690 c3         1 AR7      -0.093400
      7 CD          57.9290    16.5200    59.4020 c3         1 AR7       0.029300
      8 NE          57.0730    17.4130    58.6380 nu         1 AR7      -0.406100
      9 CZ          55.9030    17.0720    58.1140 cz         1 AR7       0.531300
     10 NH1         55.4630    15.8240    58.2120 nv         1 AR7      -0.511700
     11 NH2         55.1570    17.9840    57.5010 nv         1 AR7      -0.511700
     12 OXT         61.2300    15.4580    63.1970 oh         1 AR7      -0.615800
     13 H           61.4830    18.5170    60.0670 hn         1 AR7       0.353800
     14 H2          62.7700    18.2310    60.9910 hn         1 AR7       0.353800
     15 HA          60.7120    17.7730    62.2110 h1         1 AR7       0.048700
     16 HF          62.4500    15.3640    61.5410 h2         1 AR7       0.029700
     17 H1          63.8040    16.2210    63.0480 ho         1 AR7       0.418500
     18 HB1         60.4630    15.6110    60.0790 hc         1 AR7       0.061200
     19 HB2         59.4380    15.8110    61.4910 hc         1 AR7       0.061200
     20 HG1         58.7490    18.0870    60.6150 hc         1 AR7       0.059700
     21 HG2         59.6570    17.7530    59.1430 hc         1 AR7       0.059700
     22 HD1         58.2870    15.7050    58.7660 h1         1 AR7       0.067700
     23 HD2         57.3560    16.0760    60.2210 h1         1 AR7       0.067700
     24 HNE         57.3870    18.3630    58.5070 hn         1 AR7       0.322700
     25 HN11        54.5840    15.5530    57.8030 hn         1 AR7       0.328700
     26 HN21        54.2880    17.7370    57.0590 hn         1 AR7       0.328700
     27 HN22        55.4400    18.9480    57.4540 hn         1 AR7       0.328700
     28 HXT         61.6510    14.6380    63.4720 ho         1 AR7       0.418500
     29 HN12        56.0390    15.0820    58.5720 hn         1 AR7       0.328700
@<TRIPOS>BOND
     1     1     2 1   
     2     1    13 1   
     3     1    14 1   
     4     2     3 1   
     5     2     5 1   
     6     2    15 1   
     7     3     4 1   
     8     3    12 1   
     9     3    16 1   
    10     4    17 1   
    11     5     6 1   
    12     5    18 1   
    13     5    19 1   
    14     6     7 1   
    15     6    20 1   
    16     6    21 1   
    17     7     8 1   
    18     7    22 1   
    19     7    23 1   
    20     8     9 2   
    21     8    24 1   
    22     9    10 1   
    23     9    11 1   
    24    10    25 1   
    25    10    29 1   
    26    11    26 1   
    27    11    27 1   
    28    12    28 1   
@<TRIPOS>SUBSTRUCTURE
     1 AR7         1 TEMP              0 ****  ****    0 ROOT
