@<TRIPOS>MOLECULE
AR7
   29    28     1     0     0
SMALL
No Charge or Current Charge


@<TRIPOS>ATOM
      1 N           62.0410    17.7930    60.4260 n8         1 AR7      -0.896800
      2 CA          61.2280    17.0680    61.4410 c3         1 AR7       0.177500
      3 C           62.1140    16.1150    62.3330 c3         1 AR7       0.345900
      4 O           63.2220    16.8210    62.8790 oh         1 AR7      -0.615800
      5 CB          60.0490    16.3220    60.7570 c3         1 AR7      -0.070400
      6 CG          59.0570    17.2400    59.9990 c3         1 AR7      -0.093400
      7 CD          57.8670    16.4620    59.4010 c3         1 AR7       0.029300
      8 NE          56.9530    17.3750    58.6950 nu         1 AR7      -0.406100
      9 CZ          55.8250    17.0750    58.0570 cz         1 AR7       0.531300
     10 NH1         55.3800    15.8310    57.9910 nv         1 AR7      -0.511700
     11 NH2         55.1230    18.0290    57.4740 nv         1 AR7      -0.511700
     12 OXT         61.3770    15.6130    63.4380 oh         1 AR7      -0.615800
     13 H           61.5410    18.6400    60.1430 hn         1 AR7       0.353800
     14 H2          62.8830    18.1440    60.8970 hn         1 AR7       0.353800
     15 HA          60.8050    17.8260    62.1160 h1         1 AR7       0.048700
     16 HF          62.4800    15.2770    61.7250 h2         1 AR7       0.029700
     17 H1          63.9390    16.1640    62.9930 ho         1 AR7       0.418500
     18 HB1         60.4520    15.5720    60.0650 hc         1 AR7       0.061200
     19 HB2         59.4890    15.7700    61.5220 hc         1 AR7       0.061200
     20 HG1         58.6790    18.0060    60.6870 hc         1 AR7       0.059700
     21 HG2         59.5820    17.7610    59.1890 hc         1 AR7       0.059700
     22 HD1         58.2450    15.7020    58.7040 h1         1 AR7       0.067700
     23 HD2         57.3280    15.9480    60.2080 h1         1 AR7       0.067700
     24 HNE         57.2250    18.3520    58.6990 hn         1 AR7       0.322700
     25 HN11        54.5260    15.5870    57.5110 hn         1 AR7       0.328700
     26 HN21        54.2610    17.8390    56.9810 hn         1 AR7       0.328700
     27 HN22        55.4090    18.9980    57.4890 hn         1 AR7       0.328700
     28 HXT         61.7830    14.7540    63.6770 ho         1 AR7       0.418500
     29 HN12        55.8780    15.0640    58.4190 hn         1 AR7       0.328700
@<TRIPOS>BOND
     1     1     2 1   
     2     1    13 1   
     3     1    14 1   
     4     2     3 1   
     5     2     5 1   
     6     2    15 1   
     7     3     4 1   
     8     3    12 1   
     9     3    16 1   
    10     4    17 1   
    11     5     6 1   
    12     5    18 1   
    13     5    19 1   
    14     6     7 1   
    15     6    20 1   
    16     6    21 1   
    17     7     8 1   
    18     7    22 1   
    19     7    23 1   
    20     8     9 2   
    21     8    24 1   
    22     9    10 1   
    23     9    11 1   
    24    10    25 1   
    25    10    29 1   
    26    11    26 1   
    27    11    27 1   
    28    12    28 1   
@<TRIPOS>SUBSTRUCTURE
     1 AR7         1 TEMP              0 ****  ****    0 ROOT
