@<TRIPOS>MOLECULE
AR8
  121   122     1     0     0
SMALL
abcg2


@<TRIPOS>ATOM
      1 OAA         14.1380    51.2170    37.8780 o          1 AR8      -0.567000
      2 CBZ         14.1660    50.0720    38.3750 c          1 AR8       0.705000
      3 OAG         13.2570    49.2190    38.3280 o          1 AR8      -0.567000
      4 CBH         15.4760    49.6680    39.0860 c3         1 AR8      -0.168400
      5 CBJ         15.3220    48.5840    40.1460 c3         1 AR8      -0.082400
      6 CCI         16.6190    48.1660    40.8460 c3         1 AR8       0.047700
      7 CCB         17.6320    47.5750    39.8290 c          1 AR8       0.691000
      8 OAI         17.2950    46.4870    39.3170 o          1 AR8      -0.453000
      9 OAC         18.6670    48.2270    39.5970 o          1 AR8      -0.453000
     10 NBQ         17.1440    49.2750    41.6150 ns         1 AR8      -0.333900
     11 CCC         18.1640    49.0600    42.5030 c          1 AR8       0.590100
     12 OAD         18.4050    47.9500    42.9750 o          1 AR8      -0.619100
     13 N           18.8500    50.1710    42.8570 ns         1 AR8      -0.436900
     14 CA          19.8690    50.1930    43.8780 c3         1 AR8      -0.019300
     15 C           20.0250    51.6460    44.3950 c          1 AR8       0.707000
     16 OXT         20.7370    51.7950    45.4070 o          1 AR8      -0.675000
     17 O           19.4460    52.5440    43.7500 o          1 AR8      -0.675000
     18 CB          21.2030    49.6470    43.3390 c3         1 AR8      -0.059400
     19 CAP         22.1820    49.1600    44.3980 c3         1 AR8      -0.076400
     20 CAQ         23.4390    48.5780    43.7670 c3         1 AR8      -0.093400
     21 CBK         24.4240    48.0770    44.8140 c3         1 AR8       0.068600
     22 NCJ         25.6850    47.6880    44.2100 na         1 AR8       0.139800
     23 CAO         26.8140    48.4050    44.1240 cc         1 AR8      -0.207000
     24 NBN         25.7920    46.5610    43.5280 nc         1 AR8      -0.200800
     25 NBM         26.9690    46.5220    43.0050 nd         1 AR8      -0.350000
     26 CCD         27.6430    47.6460    43.3360 cd         1 AR8       0.149300
     27 CBL         29.0290    47.9230    42.8610 c3         1 AR8       0.145300
     28 OBY         29.0820    48.4020    41.5330 os         1 AR8      -0.440000
     29 CBG         29.0920    49.8000    41.3680 c3         1 AR8       0.126600
     30 CBF         27.6960    50.4240    41.4120 c3         1 AR8       0.125600
     31 OBX         27.7050    51.7660    40.9910 os         1 AR8      -0.456000
     32 CBE         28.1690    52.6880    41.9490 c3         1 AR8       0.156600
     33 CBD         27.6430    54.0540    41.5520 c3         1 AR8       0.146600
     34 OBW         28.1510    55.0100    42.4520 os         1 AR8      -0.440000
     35 CBC         27.7710    56.3290    42.1460 c3         1 AR8       0.159600
     36 CBB         26.2940    56.6150    42.3330 c3         1 AR8       0.119600
     37 OBV         25.8740    56.2300    43.6200 os         1 AR8      -0.440000
     38 CBA         24.4700    56.1720    43.7220 c3         1 AR8       0.120600
     39 CAZ         24.0440    55.5880    45.0550 c3         1 AR8       0.163600
     40 OBU         24.6140    54.3390    45.3560 os         1 AR8      -0.468000
     41 CAY         24.1470    53.2670    44.5700 c3         1 AR8       0.110600
     42 CAX         24.8200    51.9790    44.9890 c3         1 AR8       0.171600
     43 OBT         24.4150    51.4690    46.2350 os         1 AR8      -0.441000
     44 CAW         25.0030    52.0520    47.3750 c3         1 AR8       0.132600
     45 CAV         25.3730    50.9820    48.3850 c3         1 AR8       0.142600
     46 OBS         26.2670    49.9970    47.9170 os         1 AR8      -0.448000
     47 CAU         27.4410    50.5050    47.3420 c3         1 AR8       0.121600
     48 CAT         28.5190    49.4260    47.4020 c3         1 AR8       0.148600
     49 OBR         29.5350    49.5910    46.4340 os         1 AR8      -0.458000
     50 CAS         30.2040    50.8280    46.4080 c3         1 AR8       0.137600
     51 CAR         30.0840    51.3750    44.9820 c3         1 AR8       0.034600
     52 NBO         30.6400    52.7110    44.8370 nu         1 AR8      -0.427700
     53 CCF         30.0060    53.8370    45.0590 cc         1 AR8       0.407300
     54 CAM         28.6560    53.8080    45.5350 cc         1 AR8      -0.434600
     55 CAL         27.9250    54.9170    45.7560 cd         1 AR8       0.032000
     56 CCE         28.5020    56.1910    45.5220 cd         1 AR8       0.045000
     57 NCK         27.7480    57.3240    45.8110 nh         1 AR8       0.232300
     58 OAJ         26.7090    57.3000    46.3690 o          1 AR8      -0.403000
     59 OAE         28.2730    58.4470    45.4090 oh         1 AR8      -0.418300
     60 CAN         29.7910    56.3130    45.0610 cc         1 AR8      -0.473600
     61 CCG         30.5490    55.1650    44.8350 cc         1 AR8       0.100300
     62 NCL         31.8420    55.4250    44.3890 nh         1 AR8       0.312300
     63 OAK         32.6240    54.3830    44.3460 oh         1 AR8      -0.618000
     64 OAF         32.2500    56.4890    44.0750 o          1 AR8      -0.484000
     65 HBH1        16.1750    49.3300    38.3110 hc         1 AR8       0.072200
     66 HBH2        15.9260    50.5730    39.5050 hc         1 AR8       0.072200
     67 HBJ1        14.6110    48.9170    40.9080 hc         1 AR8       0.100700
     68 HBJ2        14.8850    47.6970    39.6900 hc         1 AR8       0.100700
     69 HCI         16.3580    47.3720    41.5500 h1         1 AR8       0.131700
     70 HBQ         17.2040    50.1420    41.1020 hn         1 AR8       0.322500
     71 H           18.5530    51.0890    42.5570 hn         1 AR8       0.353500
     72 HA          19.5570    49.5630    44.7210 h1         1 AR8       0.068700
     73 HB1C        20.9760    48.8080    42.6760 hc         1 AR8       0.041200
     74 HB2C        21.6810    50.4060    42.7110 hc         1 AR8       0.041200
     75 HAP1        22.4480    49.9770    45.0690 hc         1 AR8       0.063200
     76 HAP2        21.6940    48.3980    45.0160 hc         1 AR8       0.063200
     77 HAQ1        23.1780    47.7560    43.0960 hc         1 AR8       0.049700
     78 HAQ2        23.9280    49.3390    43.1510 hc         1 AR8       0.049700
     79 HBK1        24.6430    48.8520    45.5470 h1         1 AR8       0.079200
     80 HBK2        24.0240    47.2160    45.3510 h1         1 AR8       0.079200
     81 HAO         26.9350    49.3650    44.5950 h4         1 AR8       0.161000
     82 HBL1        29.5190    48.6180    43.5520 h1         1 AR8       0.052700
     83 HBL2        29.6020    46.9930    42.8800 h1         1 AR8       0.052700
     84 HBG1        29.7500    50.2710    42.1100 h1         1 AR8       0.040200
     85 HBG2        29.5250    49.9970    40.3830 h1         1 AR8       0.040200
     86 HBF1        27.0400    49.8800    40.7290 h1         1 AR8       0.057700
     87 HBF2        27.2620    50.3470    42.4160 h1         1 AR8       0.057700
     88 HBE1        27.7900    52.4300    42.9480 h1         1 AR8       0.025200
     89 HBE2        29.2650    52.7060    42.0030 h1         1 AR8       0.025200
     90 HBD1        27.9480    54.2880    40.5230 h1         1 AR8       0.035700
     91 HBD2        26.5460    54.0220    41.5670 h1         1 AR8       0.035700
     92 HBC1        28.3690    56.9820    42.7830 h1         1 AR8       0.057200
     93 HBC2        28.0270    56.5880    41.1090 h1         1 AR8       0.057200
     94 HBB1        26.1320    57.6870    42.1580 h1         1 AR8       0.023200
     95 HBB2        25.7060    56.0870    41.5690 h1         1 AR8       0.023200
     96 HBA1        24.0190    57.1710    43.6370 h1         1 AR8       0.025200
     97 HBA2        24.0590    55.5780    42.8930 h1         1 AR8       0.025200
     98 HAZ1        24.3260    56.2570    45.8690 h1         1 AR8       0.064200
     99 HAZ2        22.9470    55.5350    45.0510 h1         1 AR8       0.064200
    100 HAY1        23.0570    53.1650    44.6610 h1         1 AR8       0.055200
    101 HAY2        24.3750    53.4160    43.5060 h1         1 AR8       0.055200
    102 HAX1        24.5610    51.2220    44.2460 h1         1 AR8       0.035700
    103 HAX2        25.9110    52.1050    44.9480 h1         1 AR8       0.035700
    104 HAW1        25.8880    52.6380    47.1040 h1         1 AR8       0.042200
    105 HAW2        24.3110    52.7470    47.8650 h1         1 AR8       0.042200
    106 HAV1        25.7860    51.4970    49.2640 h1         1 AR8       0.056200
    107 HAV2        24.4790    50.4460    48.7120 h1         1 AR8       0.056200
    108 HAU1        27.2700    50.7860    46.2930 h1         1 AR8       0.023700
    109 HAU2        27.7730    51.4090    47.8700 h1         1 AR8       0.023700
    110 HAT1        28.9410    49.3740    48.4130 h1         1 AR8       0.065700
    111 HAT2        28.0650    48.4580    47.1830 h1         1 AR8       0.065700
    112 HAS1        29.7990    51.5500    47.1230 h1         1 AR8       0.050200
    113 HAS2        31.2600    50.6930    46.6610 h1         1 AR8       0.050200
    114 HAR1        30.6440    50.7420    44.2960 h1         1 AR8       0.069700
    115 HAR2        29.0470    51.3590    44.6480 h1         1 AR8       0.069700
    116 HBO         31.5980    52.7320    44.5230 hn         1 AR8       0.364000
    117 HAM         28.1880    52.8550    45.7200 ha         1 AR8       0.184000
    118 HAL         26.9020    54.8160    46.0900 ha         1 AR8       0.233000
    119 HAN         30.2420    57.2820    44.8980 ha         1 AR8       0.227000
    120 HAJ         27.6970    59.1860    45.7040 ho         1 AR8       0.487000
    121 HAK         33.4980    54.6520    43.9830 ho         1 AR8       0.495000
@<TRIPOS>BOND
     1     1     2 1   
     2     2     3 1   
     3     2     4 1   
     4     4     5 1   
     5     4    65 1   
     6     4    66 1   
     7     5     6 1   
     8     5    67 1   
     9     5    68 1   
    10     6     7 1   
    11     6    10 1   
    12     6    69 1   
    13     7     8 1   
    14     7     9 1   
    15    10    11 1   
    16    10    70 1   
    17    11    12 2   
    18    11    13 1   
    19    13    14 1   
    20    13    71 1   
    21    14    15 1   
    22    14    18 1   
    23    14    72 1   
    24    15    16 1   
    25    15    17 1   
    26    18    19 1   
    27    18    73 1   
    28    18    74 1   
    29    19    20 1   
    30    19    75 1   
    31    19    76 1   
    32    20    21 1   
    33    20    77 1   
    34    20    78 1   
    35    21    22 1   
    36    21    79 1   
    37    21    80 1   
    38    22    23 1   
    39    22    24 1   
    40    23    26 2   
    41    23    81 1   
    42    24    25 2   
    43    25    26 1   
    44    26    27 1   
    45    27    28 1   
    46    27    82 1   
    47    27    83 1   
    48    28    29 1   
    49    29    30 1   
    50    29    84 1   
    51    29    85 1   
    52    30    31 1   
    53    30    86 1   
    54    30    87 1   
    55    31    32 1   
    56    32    33 1   
    57    32    88 1   
    58    32    89 1   
    59    33    34 1   
    60    33    90 1   
    61    33    91 1   
    62    34    35 1   
    63    35    36 1   
    64    35    92 1   
    65    35    93 1   
    66    36    37 1   
    67    36    94 1   
    68    36    95 1   
    69    37    38 1   
    70    38    39 1   
    71    38    96 1   
    72    38    97 1   
    73    39    40 1   
    74    39    98 1   
    75    39    99 1   
    76    40    41 1   
    77    41    42 1   
    78    41   100 1   
    79    41   101 1   
    80    42    43 1   
    81    42   102 1   
    82    42   103 1   
    83    43    44 1   
    84    44    45 1   
    85    44   104 1   
    86    44   105 1   
    87    45    46 1   
    88    45   106 1   
    89    45   107 1   
    90    46    47 1   
    91    47    48 1   
    92    47   108 1   
    93    47   109 1   
    94    48    49 1   
    95    48   110 1   
    96    48   111 1   
    97    49    50 1   
    98    50    51 1   
    99    50   112 1   
   100    50   113 1   
   101    51    52 1   
   102    51   114 1   
   103    51   115 1   
   104    52    53 2   
   105    52   116 1   
   106    53    54 1   
   107    53    61 1   
   108    54    55 2   
   109    54   117 1   
   110    55    56 1   
   111    55   118 1   
   112    56    57 1   
   113    56    60 2   
   114    57    58 1   
   115    57    59 1   
   116    59   120 1   
   117    60    61 1   
   118    60   119 1   
   119    61    62 2   
   120    62    63 1   
   121    62    64 1   
   122    63   121 1   
@<TRIPOS>SUBSTRUCTURE
     1 AR8         1 TEMP              0 ****  ****    0 ROOT
