@<TRIPOS>MOLECULE
AR8
  121   122     1     0     0
SMALL
No Charge or Current Charge


@<TRIPOS>ATOM
      1 OAA         13.4720    49.0930    42.7910 o          1 AR8      -0.567000
      2 CBZ         13.4580    49.5130    41.6440 c          1 AR8       0.705000
      3 OAG         12.5000    49.4370    40.8890 o          1 AR8      -0.567000
      4 CBH         14.7610    50.0940    41.0810 c3         1 AR8      -0.168400
      5 CBJ         15.6200    48.9680    40.4350 c3         1 AR8      -0.082400
      6 CCI         16.9660    49.4420    39.8130 c3         1 AR8       0.047700
      7 CCB         16.7650    50.3360    38.5600 c          1 AR8       0.691000
      8 OAI         16.6730    49.7730    37.4780 o          1 AR8      -0.453000
      9 OAC         16.7990    51.5510    38.7080 o          1 AR8      -0.453000
     10 NBQ         17.8380    50.1130    40.8060 ns         1 AR8      -0.333900
     11 CCC         18.5400    49.4580    41.7890 c          1 AR8       0.590100
     12 OAD         18.5320    48.2450    41.9200 o          1 AR8      -0.619100
     13 N           19.2520    50.3000    42.6090 ns         1 AR8      -0.436900
     14 CA          20.1170    49.8610    43.7300 c3         1 AR8      -0.019300
     15 C           20.2840    51.0200    44.7600 c          1 AR8       0.707000
     16 OXT         20.0730    50.7740    45.9390 o          1 AR8      -0.675000
     17 O           20.4820    52.1480    44.3290 o          1 AR8      -0.675000
     18 CB          21.4790    49.3290    43.2150 c3         1 AR8      -0.059400
     19 CAP         22.3610    48.6960    44.3160 c3         1 AR8      -0.076400
     20 CAQ         23.7150    48.1840    43.7780 c3         1 AR8      -0.093400
     21 CBK         24.6280    47.6090    44.8840 c3         1 AR8       0.068600
     22 NCJ         26.0110    47.3910    44.4350 na         1 AR8       0.139800
     23 CAO         27.1070    48.1600    44.7260 cc         1 AR8      -0.207000
     24 NBN         26.3330    46.3450    43.6220 nc         1 AR8      -0.200800
     25 NBM         27.6130    46.4410    43.3830 nd         1 AR8      -0.350000
     26 CCD         28.1160    47.5500    44.0360 cd         1 AR8       0.149300
     27 CBL         29.5750    47.9540    43.9660 c3         1 AR8       0.145300
     28 OBY         29.9660    48.2930    42.6110 os         1 AR8      -0.440000
     29 CBG         29.7840    49.6680    42.1900 c3         1 AR8       0.126600
     30 CBF         28.2760    50.0180    42.0760 c3         1 AR8       0.125600
     31 OBX         28.1000    51.2470    41.3360 os         1 AR8      -0.456000
     32 CBE         28.5910    52.4430    41.9760 c3         1 AR8       0.156600
     33 CBD         28.0640    53.6640    41.1940 c3         1 AR8       0.146600
     34 OBW         28.3550    54.8420    41.9740 os         1 AR8      -0.440000
     35 CBC         27.8720    56.1090    41.4580 c3         1 AR8       0.159600
     36 CBB         26.3210    56.1260    41.3440 c3         1 AR8       0.119600
     37 OBV         25.7450    55.8260    42.6290 os         1 AR8      -0.440000
     38 CBA         24.3180    55.6310    42.6240 c3         1 AR8       0.120600
     39 CAZ         23.8670    55.1280    44.0250 c3         1 AR8       0.163600
     40 OBU         24.6030    53.9390    44.4130 os         1 AR8      -0.468000
     41 CAY         24.3760    52.7480    43.6250 c3         1 AR8       0.110600
     42 CAX         25.4130    51.6710    44.0300 c3         1 AR8       0.171600
     43 OBT         24.9780    50.9200    45.1830 os         1 AR8      -0.441000
     44 CAW         24.8660    51.6440    46.4260 c3         1 AR8       0.132600
     45 CAV         24.6620    50.6130    47.5660 c3         1 AR8       0.142600
     46 OBS         25.8830    49.8670    47.7750 os         1 AR8      -0.448000
     47 CAU         26.8880    50.5250    48.5760 c3         1 AR8       0.121600
     48 CAT         28.2400    49.7820    48.3960 c3         1 AR8       0.148600
     49 OBR         28.8200    50.1010    47.1080 os         1 AR8      -0.458000
     50 CAS         29.4400    51.3980    46.9990 c3         1 AR8       0.137600
     51 CAR         29.7590    51.6280    45.5090 c3         1 AR8       0.034600
     52 NBO         30.3130    52.9710    45.2590 nu         1 AR8      -0.427700
     53 CCF         29.6380    54.1810    45.1620 cc         1 AR8       0.407300
     54 CAM         28.2330    54.2230    45.4370 cc         1 AR8      -0.434600
     55 CAL         27.5320    55.4160    45.3810 cd         1 AR8       0.032000
     56 CCE         28.2000    56.6690    45.0670 cd         1 AR8       0.045000
     57 NCK         27.4410    57.8730    45.0360 nh         1 AR8       0.232300
     58 OAJ         26.2420    57.8570    45.4390 o          1 AR8      -0.403000
     59 OAE         28.0990    59.0230    44.5880 oh         1 AR8      -0.418300
     60 CAN         29.5710    56.6440    44.8060 cc         1 AR8      -0.473600
     61 CCG         30.3310    55.4090    44.8310 cc         1 AR8       0.100300
     62 NCL         31.7080    55.4360    44.5570 nh         1 AR8       0.312300
     63 OAK         32.2400    54.3760    43.8200 oh         1 AR8      -0.618000
     64 OAF         32.3850    56.4420    44.9180 o          1 AR8      -0.484000
     65 HBH1        14.5260    50.8100    40.2850 hc         1 AR8       0.072200
     66 HBH2        15.3550    50.5150    41.9000 hc         1 AR8       0.072200
     67 HBJ1        15.8330    48.2030    41.1930 hc         1 AR8       0.100700
     68 HBJ2        15.0310    48.4630    39.6570 hc         1 AR8       0.100700
     69 HCI         17.5010    48.5550    39.4480 h1         1 AR8       0.131700
     70 HBQ         17.9130    51.1230    40.7680 hn         1 AR8       0.322500
     71 H           19.1910    51.2960    42.4300 hn         1 AR8       0.353500
     72 HA          19.6010    49.0440    44.2510 h1         1 AR8       0.068700
     73 HB1C        21.3010    48.5760    42.4370 hc         1 AR8       0.041200
     74 HB2C        22.0280    50.1500    42.7380 hc         1 AR8       0.041200
     75 HAP1        22.5490    49.4370    45.1020 hc         1 AR8       0.063200
     76 HAP2        21.8180    47.8640    44.7830 hc         1 AR8       0.063200
     77 HAQ1        23.5440    47.4160    43.0140 hc         1 AR8       0.049700
     78 HAQ2        24.2340    49.0120    43.2810 hc         1 AR8       0.049700
     79 HBK1        24.6590    48.3040    45.7310 h1         1 AR8       0.079200
     80 HBK2        24.2180    46.6590    45.2490 h1         1 AR8       0.079200
     81 HAO         27.0790    49.0360    45.3600 h4         1 AR8       0.161000
     82 HBL1        29.7610    48.7870    44.6560 h1         1 AR8       0.052700
     83 HBL2        30.1730    47.1040    44.3190 h1         1 AR8       0.052700
     84 HBG1        30.2790    50.3540    42.8880 h1         1 AR8       0.040200
     85 HBG2        30.2460    49.8080    41.2040 h1         1 AR8       0.040200
     86 HBF1        27.7610    49.1980    41.5600 h1         1 AR8       0.057700
     87 HBF2        27.8410    50.1130    43.0780 h1         1 AR8       0.057700
     88 HBE1        28.2240    52.5040    43.0070 h1         1 AR8       0.025200
     89 HBE2        29.6890    52.4630    41.9950 h1         1 AR8       0.025200
     90 HBD1        28.5460    53.7130    40.2090 h1         1 AR8       0.035700
     91 HBD2        26.9830    53.5390    41.0540 h1         1 AR8       0.035700
     92 HBC1        28.1830    56.9250    42.1220 h1         1 AR8       0.057200
     93 HBC2        28.3040    56.3100    40.4690 h1         1 AR8       0.057200
     94 HBB1        26.0000    57.1210    41.0080 h1         1 AR8       0.023200
     95 HBB2        25.9950    55.4020    40.5870 h1         1 AR8       0.023200
     96 HBA1        23.8050    56.5760    42.4030 h1         1 AR8       0.025200
     97 HBA2        24.0210    54.9070    41.8550 h1         1 AR8       0.025200
     98 HAZ1        24.0380    55.9300    44.7540 h1         1 AR8       0.064200
     99 HAZ2        22.7870    54.9270    44.0070 h1         1 AR8       0.064200
    100 HAY1        23.3580    52.3620    43.7650 h1         1 AR8       0.055200
    101 HAY2        24.5200    52.9510    42.5570 h1         1 AR8       0.055200
    102 HAX1        25.5400    50.9860    43.1810 h1         1 AR8       0.035700
    103 HAX2        26.3860    52.1410    44.2130 h1         1 AR8       0.035700
    104 HAW1        25.7620    52.2470    46.6170 h1         1 AR8       0.042200
    105 HAW2        24.0000    52.3170    46.4020 h1         1 AR8       0.042200
    106 HAV1        24.3600    51.1340    48.4840 h1         1 AR8       0.056200
    107 HAV2        23.8440    49.9370    47.2860 h1         1 AR8       0.056200
    108 HAU1        26.9950    51.5810    48.3040 h1         1 AR8       0.023700
    109 HAU2        26.6010    50.4870    49.6340 h1         1 AR8       0.023700
    110 HAT1        28.9230    50.0640    49.2080 h1         1 AR8       0.065700
    111 HAT2        28.0610    48.7020    48.4770 h1         1 AR8       0.065700
    112 HAS1        28.7760    52.1940    47.3550 h1         1 AR8       0.050200
    113 HAS2        30.3660    51.4380    47.5880 h1         1 AR8       0.050200
    114 HAR1        30.4900    50.8740    45.1910 h1         1 AR8       0.069700
    115 HAR2        28.8470    51.4770    44.9190 h1         1 AR8       0.069700
    116 HBO         31.2870    53.0330    44.9610 hn         1 AR8       0.364000
    117 HAM         27.7040    53.3130    45.6820 ha         1 AR8       0.184000
    118 HAL         26.4620    55.4090    45.5750 ha         1 AR8       0.233000
    119 HAN         30.1100    57.5550    44.5590 ha         1 AR8       0.227000
    120 HAJ         28.4250    59.3350    45.4560 ho         1 AR8       0.487000
    121 HAK         32.1960    54.8060    42.9380 ho         1 AR8       0.495000
@<TRIPOS>BOND
     1     1     2 1   
     2     2     3 1   
     3     2     4 1   
     4     4     5 1   
     5     4    65 1   
     6     4    66 1   
     7     5     6 1   
     8     5    67 1   
     9     5    68 1   
    10     6     7 1   
    11     6    10 1   
    12     6    69 1   
    13     7     8 1   
    14     7     9 1   
    15    10    11 1   
    16    10    70 1   
    17    11    12 2   
    18    11    13 1   
    19    13    14 1   
    20    13    71 1   
    21    14    15 1   
    22    14    18 1   
    23    14    72 1   
    24    15    16 1   
    25    15    17 1   
    26    18    19 1   
    27    18    73 1   
    28    18    74 1   
    29    19    20 1   
    30    19    75 1   
    31    19    76 1   
    32    20    21 1   
    33    20    77 1   
    34    20    78 1   
    35    21    22 1   
    36    21    79 1   
    37    21    80 1   
    38    22    23 1   
    39    22    24 1   
    40    23    26 2   
    41    23    81 1   
    42    24    25 2   
    43    25    26 1   
    44    26    27 1   
    45    27    28 1   
    46    27    82 1   
    47    27    83 1   
    48    28    29 1   
    49    29    30 1   
    50    29    84 1   
    51    29    85 1   
    52    30    31 1   
    53    30    86 1   
    54    30    87 1   
    55    31    32 1   
    56    32    33 1   
    57    32    88 1   
    58    32    89 1   
    59    33    34 1   
    60    33    90 1   
    61    33    91 1   
    62    34    35 1   
    63    35    36 1   
    64    35    92 1   
    65    35    93 1   
    66    36    37 1   
    67    36    94 1   
    68    36    95 1   
    69    37    38 1   
    70    38    39 1   
    71    38    96 1   
    72    38    97 1   
    73    39    40 1   
    74    39    98 1   
    75    39    99 1   
    76    40    41 1   
    77    41    42 1   
    78    41   100 1   
    79    41   101 1   
    80    42    43 1   
    81    42   102 1   
    82    42   103 1   
    83    43    44 1   
    84    44    45 1   
    85    44   104 1   
    86    44   105 1   
    87    45    46 1   
    88    45   106 1   
    89    45   107 1   
    90    46    47 1   
    91    47    48 1   
    92    47   108 1   
    93    47   109 1   
    94    48    49 1   
    95    48   110 1   
    96    48   111 1   
    97    49    50 1   
    98    50    51 1   
    99    50   112 1   
   100    50   113 1   
   101    51    52 1   
   102    51   114 1   
   103    51   115 1   
   104    52    53 2   
   105    52   116 1   
   106    53    54 1   
   107    53    61 1   
   108    54    55 2   
   109    54   117 1   
   110    55    56 1   
   111    55   118 1   
   112    56    57 1   
   113    56    60 2   
   114    57    58 1   
   115    57    59 1   
   116    59   120 1   
   117    60    61 1   
   118    60   119 1   
   119    61    62 2   
   120    62    63 1   
   121    62    64 1   
   122    63   121 1   
@<TRIPOS>SUBSTRUCTURE
     1 AR8         1 TEMP              0 ****  ****    0 ROOT
