@<TRIPOS>MOLECULE
AR9
   76    76     1     0     0
SMALL
No Charge or Current Charge


@<TRIPOS>ATOM
      1 N1          29.7940     5.6640    15.8820 ns         1 AR9      -0.489900
      2 C3          30.6700     6.0710    14.7760 c3         1 AR9       0.117700
      3 C5          31.9210     6.8200    15.3260 c3         1 AR9      -0.080400
      4 C8          31.7470     8.3450    15.6010 c3         1 AR9      -0.060700
      5 C10         32.9360     8.9030    16.4380 c3         1 AR9      -0.073400
      6 C13         32.7760     8.7380    17.9720 c3         1 AR9      -0.076400
      7 C16         31.9770     9.8970    18.6210 c3         1 AR9      -0.077400
      8 C19         31.7440     9.7490    20.1470 c3         1 AR9      -0.073400
      9 C22         30.6550     8.7250    20.5550 c3         1 AR9      -0.079400
     10 C25         29.2100     9.1850    20.2270 c3         1 AR9      -0.069400
     11 C28         28.0980     8.1720    20.6030 c3         1 AR9      -0.157400
     12 C31         28.2890     6.8390    19.8760 c          1 AR9       0.600100
     13 N32         27.7580     6.7970    18.6080 ns         1 AR9      -0.505900
     14 C34         28.0470     5.7420    17.6170 c3         1 AR9       0.033700
     15 C36         28.7310     6.3800    16.3780 c          1 AR9       0.577100
     16 O37         28.3720     7.4430    15.8860 o          1 AR9      -0.618100
     17 C38         26.7590     4.9850    17.2390 c3         1 AR9      -0.096100
     18 O42         28.9020     5.9000    20.3640 o          1 AR9      -0.614100
     19 C43         31.5810     9.1450    14.2840 c3         1 AR9      -0.089100
     20 C47         31.0550     4.8240    13.9200 c3         1 AR9       0.149300
     21 O49         31.6590     3.8240    14.7600 oh         1 AR9      -0.675000
     22 C51         29.8310     4.2010    13.1930 c3         1 AR9      -0.094400
     23 C54         30.1760     3.1080    12.1390 c3         1 AR9      -0.137700
     24 C56         28.9010     2.5130    11.4940 c3         1 AR9      -0.080100
     25 C60         31.1340     3.6480    11.0560 c          1 AR9       0.585100
     26 O61         30.8470     4.5900    10.3310 o          1 AR9      -0.603100
     27 N62         32.3490     3.0040    10.9770 ns         1 AR9      -0.510900
     28 C64         33.4500     3.4090    10.1000 c3         1 AR9       0.099000
     29 C67         34.2180     4.6230    10.6680 c3         1 AR9      -0.101400
     30 C70         35.4410     5.0480     9.8230 c3         1 AR9      -0.070400
     31 C73         35.0870     5.5650     8.4130 c3         1 AR9      -0.091100
     32 HN1         30.0160     4.7870    16.3380 hn         1 AR9       0.333500
     33 H3          30.1130     6.7480    14.1160 h1         1 AR9       0.086700
     34 H5          32.2560     6.3140    16.2400 hc         1 AR9       0.048200
     35 H5A         32.7450     6.7060    14.6100 hc         1 AR9       0.048200
     36 H8          30.8310     8.4920    16.1850 hc         1 AR9       0.059700
     37 H10         33.8610     8.4060    16.1190 hc         1 AR9       0.037700
     38 H10A        33.0860     9.9680    16.2190 hc         1 AR9       0.037700
     39 H13         32.3020     7.7750    18.1940 hc         1 AR9       0.040200
     40 H13A        33.7740     8.7080    18.4270 hc         1 AR9       0.040200
     41 H16         32.5350    10.8280    18.4550 hc         1 AR9       0.038200
     42 H16A        31.0200    10.0250    18.1040 hc         1 AR9       0.038200
     43 H19         32.6920     9.4700    20.6240 hc         1 AR9       0.038200
     44 H19A        31.4730    10.7290    20.5610 hc         1 AR9       0.038200
     45 H22         30.8680     7.7660    20.0700 hc         1 AR9       0.048700
     46 H22A        30.7270     8.5500    21.6360 hc         1 AR9       0.048700
     47 H25         29.0120    10.1310    20.7460 hc         1 AR9       0.043200
     48 H25A        29.1280     9.3980    19.1550 hc         1 AR9       0.043200
     49 H28         28.1080     8.0080    21.6870 hc         1 AR9       0.064700
     50 H28A        27.1490     8.6220    20.2890 hc         1 AR9       0.064700
     51 HN32        27.2910     7.6380    18.2850 hn         1 AR9       0.322500
     52 H34         28.7560     5.0240    18.0490 h1         1 AR9       0.085700
     53 H38         26.3090     4.5220    18.1260 hc         1 AR9       0.050367
     54 H38A        26.0220     5.6650    16.7930 hc         1 AR9       0.050367
     55 H38B        26.9780     4.1920    16.5130 hc         1 AR9       0.050367
     56 H43         31.4530    10.2140    14.4950 hc         1 AR9       0.035033
     57 H43A        32.4620     9.0280    13.6420 hc         1 AR9       0.035033
     58 H43B        30.6990     8.8180    13.7220 hc         1 AR9       0.035033
     59 H47         31.7730     5.1600    13.1590 h1         1 AR9       0.046700
     60 HO49        32.0340     3.1340    14.1730 ho         1 AR9       0.439000
     61 H51         29.1440     3.7800    13.9380 hc         1 AR9       0.067700
     62 H51A        29.2790     5.0050    12.6900 hc         1 AR9       0.067700
     63 H54         30.6770     2.2820    12.6590 hc         1 AR9       0.046700
     64 H56         29.1630     1.7250    10.7770 hc         1 AR9       0.045700
     65 H56A        28.2470     2.0740    12.2570 hc         1 AR9       0.045700
     66 H56B        28.3330     3.2860    10.9600 hc         1 AR9       0.045700
     67 HN62        32.4920     2.2140    11.5940 hn         1 AR9       0.305500
     68 H64         34.1390     2.5600     9.9890 h1         1 AR9       0.059700
     69 H64A        33.0460     3.6480     9.1080 h1         1 AR9       0.059700
     70 H67         33.5340     5.4760    10.7670 hc         1 AR9       0.042700
     71 H67A        34.5620     4.3790    11.6800 hc         1 AR9       0.042700
     72 H70         35.9780     5.8400    10.3600 hc         1 AR9       0.038200
     73 H70A        36.1350     4.2030     9.7350 hc         1 AR9       0.038200
     74 H73         34.3800     6.4020     8.4720 hc         1 AR9       0.035367
     75 H73A        35.9900     5.9160     7.9000 hc         1 AR9       0.035367
     76 H73B        34.6380     4.7730     7.8030 hc         1 AR9       0.035367
@<TRIPOS>BOND
     1     1     2 1   
     2     1    15 1   
     3     1    32 1   
     4     2     3 1   
     5     2    20 1   
     6     2    33 1   
     7     3     4 1   
     8     3    34 1   
     9     3    35 1   
    10     4     5 1   
    11     4    19 1   
    12     4    36 1   
    13     5     6 1   
    14     5    37 1   
    15     5    38 1   
    16     6     7 1   
    17     6    39 1   
    18     6    40 1   
    19     7     8 1   
    20     7    41 1   
    21     7    42 1   
    22     8     9 1   
    23     8    43 1   
    24     8    44 1   
    25     9    10 1   
    26     9    45 1   
    27     9    46 1   
    28    10    11 1   
    29    10    47 1   
    30    10    48 1   
    31    11    12 1   
    32    11    49 1   
    33    11    50 1   
    34    12    13 1   
    35    12    18 2   
    36    13    14 1   
    37    13    51 1   
    38    14    15 1   
    39    14    17 1   
    40    14    52 1   
    41    15    16 2   
    42    17    53 1   
    43    17    54 1   
    44    17    55 1   
    45    19    56 1   
    46    19    57 1   
    47    19    58 1   
    48    20    21 1   
    49    20    22 1   
    50    20    59 1   
    51    21    60 1   
    52    22    23 1   
    53    22    61 1   
    54    22    62 1   
    55    23    24 1   
    56    23    25 1   
    57    23    63 1   
    58    24    64 1   
    59    24    65 1   
    60    24    66 1   
    61    25    26 2   
    62    25    27 1   
    63    27    28 1   
    64    27    67 1   
    65    28    29 1   
    66    28    68 1   
    67    28    69 1   
    68    29    30 1   
    69    29    70 1   
    70    29    71 1   
    71    30    31 1   
    72    30    72 1   
    73    30    73 1   
    74    31    74 1   
    75    31    75 1   
    76    31    76 1   
@<TRIPOS>SUBSTRUCTURE
     1 AR9         1 TEMP              0 ****  ****    0 ROOT
