@<TRIPOS>MOLECULE
AR9
   76    76     1     0     0
SMALL
abcg2


@<TRIPOS>ATOM
      1 N1          29.7680     5.9980    15.8120 ns         1 AR9      -0.489900
      2 C3          30.6130     6.3670    14.6810 c3         1 AR9       0.117700
      3 C5          31.8150     7.2070    15.1190 c3         1 AR9      -0.080400
      4 C8          31.4970     8.6610    15.4900 c3         1 AR9      -0.060700
      5 C10         32.7120     9.2990    16.1870 c3         1 AR9      -0.073400
      6 C13         32.8300     8.9540    17.6750 c3         1 AR9      -0.076400
      7 C16         31.9560     9.8490    18.5560 c3         1 AR9      -0.077400
      8 C19         31.9230     9.4210    20.0270 c3         1 AR9      -0.073400
      9 C22         31.0080     8.2260    20.3120 c3         1 AR9      -0.079400
     10 C25         29.5260     8.5990    20.2920 c3         1 AR9      -0.069400
     11 C28         28.5820     7.4180    20.5680 c3         1 AR9      -0.157400
     12 C31         28.6270     6.3760    19.4690 c          1 AR9       0.600100
     13 N32         27.8690     6.6610    18.3860 ns         1 AR9      -0.505900
     14 C34         27.7930     5.8100    17.2090 c3         1 AR9       0.033700
     15 C36         28.5380     6.4810    16.0440 c          1 AR9       0.577100
     16 O37         28.0230     7.3960    15.4000 o          1 AR9      -0.618100
     17 C38         26.3460     5.5210    16.8310 c3         1 AR9      -0.096100
     18 O42         29.3170     5.3580    19.5490 o          1 AR9      -0.614100
     19 C43         31.0940     9.4750    14.2590 c3         1 AR9      -0.089100
     20 C47         31.0360     5.0930    13.9420 c3         1 AR9       0.149300
     21 O49         31.7070     4.2520    14.8960 oh         1 AR9      -0.675000
     22 C51         29.8530     4.3760    13.2980 c3         1 AR9      -0.094400
     23 C54         30.2330     3.1370    12.4760 c3         1 AR9      -0.137700
     24 C56         28.9880     2.4670    11.8880 c3         1 AR9      -0.080100
     25 C60         31.1900     3.5350    11.3580 c          1 AR9       0.585100
     26 O61         30.8580     4.3340    10.4780 o          1 AR9      -0.603100
     27 N62         32.4100     2.9670    11.4010 ns         1 AR9      -0.510900
     28 C64         33.4860     3.3080    10.4840 c3         1 AR9       0.099000
     29 C67         34.3400     4.4680    10.9970 c3         1 AR9      -0.101400
     30 C70         35.5020     4.8240    10.0660 c3         1 AR9      -0.070400
     31 C73         35.0630     5.3850     8.7130 c3         1 AR9      -0.091100
     32 HN1         30.1030     5.2460    16.3940 hn         1 AR9       0.333500
     33 H3          29.9860     6.9440    14.0030 h1         1 AR9       0.086700
     34 H5          32.2960     6.7040    15.9600 hc         1 AR9       0.048200
     35 H5A         32.5430     7.2160    14.3020 hc         1 AR9       0.048200
     36 H8          30.6580     8.6640    16.1950 hc         1 AR9       0.059700
     37 H10         33.6160     8.9880    15.6530 hc         1 AR9       0.037700
     38 H10A        32.6590    10.3870    16.0860 hc         1 AR9       0.037700
     39 H13         32.5680     7.9030    17.8290 hc         1 AR9       0.040200
     40 H13A        33.8700     9.0600    18.0000 hc         1 AR9       0.040200
     41 H16         32.3360    10.8730    18.4830 hc         1 AR9       0.038200
     42 H16A        30.9380     9.8770    18.1560 hc         1 AR9       0.038200
     43 H19         32.9430     9.1830    20.3460 hc         1 AR9       0.038200
     44 H19A        31.5970    10.2630    20.6470 hc         1 AR9       0.038200
     45 H22         31.2020     7.4280    19.5890 hc         1 AR9       0.048700
     46 H22A        31.2480     7.8100    21.2960 hc         1 AR9       0.048700
     47 H25         29.3440     9.3620    21.0540 hc         1 AR9       0.043200
     48 H25A        29.2610     9.0490    19.3320 hc         1 AR9       0.043200
     49 H28         28.8630     6.9250    21.4990 hc         1 AR9       0.064700
     50 H28A        27.5600     7.7890    20.6730 hc         1 AR9       0.064700
     51 HN32        27.3300     7.5130    18.3840 hn         1 AR9       0.322500
     52 H34         28.3000     4.8850    17.4740 h1         1 AR9       0.085700
     53 H38         25.8430     5.0190    17.6570 hc         1 AR9       0.050367
     54 H38A        25.8170     6.4470    16.6030 hc         1 AR9       0.050367
     55 H38B        26.3060     4.8770    15.9510 hc         1 AR9       0.050367
     56 H43         30.8230    10.4950    14.5420 hc         1 AR9       0.035033
     57 H43A        31.9260     9.5320    13.5520 hc         1 AR9       0.035033
     58 H43B        30.2410     9.0390    13.7370 hc         1 AR9       0.035033
     59 H47         31.7460     5.3940    13.1670 h1         1 AR9       0.046700
     60 HO49        32.3430     3.6920    14.4370 ho         1 AR9       0.439000
     61 H51         29.1500     4.0730    14.0770 hc         1 AR9       0.067700
     62 H51A        29.3350     5.0840    12.6470 hc         1 AR9       0.067700
     63 H54         30.7360     2.4220    13.1310 hc         1 AR9       0.046700
     64 H56         29.2510     1.5660    11.3310 hc         1 AR9       0.045700
     65 H56A        28.3010     2.1880    12.6880 hc         1 AR9       0.045700
     66 H56B        28.4700     3.1500    11.2130 hc         1 AR9       0.045700
     67 HN62        32.6270     2.3650    12.1800 hn         1 AR9       0.305500
     68 H64         34.1050     2.4190    10.3460 h1         1 AR9       0.059700
     69 H64A        33.0350     3.5540     9.5240 h1         1 AR9       0.059700
     70 H67         33.6980     5.3430    11.1390 hc         1 AR9       0.042700
     71 H67A        34.7310     4.1980    11.9820 hc         1 AR9       0.042700
     72 H70         36.1350     5.5600    10.5700 hc         1 AR9       0.038200
     73 H70A        36.1250     3.9370     9.9120 hc         1 AR9       0.038200
     74 H73         34.4220     6.2600     8.8460 hc         1 AR9       0.035367
     75 H73A        35.9270     5.6890     8.1180 hc         1 AR9       0.035367
     76 H73B        34.5050     4.6490     8.1300 hc         1 AR9       0.035367
@<TRIPOS>BOND
     1     1     2 1   
     2     1    15 1   
     3     1    32 1   
     4     2     3 1   
     5     2    20 1   
     6     2    33 1   
     7     3     4 1   
     8     3    34 1   
     9     3    35 1   
    10     4     5 1   
    11     4    19 1   
    12     4    36 1   
    13     5     6 1   
    14     5    37 1   
    15     5    38 1   
    16     6     7 1   
    17     6    39 1   
    18     6    40 1   
    19     7     8 1   
    20     7    41 1   
    21     7    42 1   
    22     8     9 1   
    23     8    43 1   
    24     8    44 1   
    25     9    10 1   
    26     9    45 1   
    27     9    46 1   
    28    10    11 1   
    29    10    47 1   
    30    10    48 1   
    31    11    12 1   
    32    11    49 1   
    33    11    50 1   
    34    12    13 1   
    35    12    18 2   
    36    13    14 1   
    37    13    51 1   
    38    14    15 1   
    39    14    17 1   
    40    14    52 1   
    41    15    16 2   
    42    17    53 1   
    43    17    54 1   
    44    17    55 1   
    45    19    56 1   
    46    19    57 1   
    47    19    58 1   
    48    20    21 1   
    49    20    22 1   
    50    20    59 1   
    51    21    60 1   
    52    22    23 1   
    53    22    61 1   
    54    22    62 1   
    55    23    24 1   
    56    23    25 1   
    57    23    63 1   
    58    24    64 1   
    59    24    65 1   
    60    24    66 1   
    61    25    26 2   
    62    25    27 1   
    63    27    28 1   
    64    27    67 1   
    65    28    29 1   
    66    28    68 1   
    67    28    69 1   
    68    29    30 1   
    69    29    70 1   
    70    29    71 1   
    71    30    31 1   
    72    30    72 1   
    73    30    73 1   
    74    31    74 1   
    75    31    75 1   
    76    31    76 1   
@<TRIPOS>SUBSTRUCTURE
     1 AR9         1 TEMP              0 ****  ****    0 ROOT
