@<TRIPOS>MOLECULE
ARA
   20    20     1     0     0
SMALL
bcc


@<TRIPOS>ATOM
      1 C1          14.3660    56.6830    55.1070 c6         1 ARA       0.353900
      2 C2          12.9500    57.1710    54.8120 c6         1 ARA       0.129100
      3 C3          12.3930    56.3890    53.6250 c6         1 ARA       0.116100
      4 C4          13.3310    56.4720    52.4230 c6         1 ARA       0.086100
      5 C5          14.7170    56.0340    52.8790 c6         1 ARA       0.110400
      6 O1          14.9060    57.4560    56.1110 oh         1 ARA      -0.555800
      7 O2          12.1750    56.9670    55.9660 oh         1 ARA      -0.588800
      8 O3          11.1000    56.8810    53.3670 oh         1 ARA      -0.581800
      9 O4          13.3190    57.7910    51.9350 oh         1 ARA      -0.565800
     10 O5          15.1720    56.8140    53.9610 os         1 ARA      -0.428600
     11 H1          14.3200    55.6170    55.3970 h2         1 ARA       0.018700
     12 H2          13.0030    58.2390    54.5490 h1         1 ARA       0.088700
     13 H3          12.3530    55.3290    53.9190 h1         1 ARA       0.034700
     14 H4          12.9890    55.7590    51.6570 h1         1 ARA       0.031700
     15 H51         14.6900    54.9670    53.1430 h1         1 ARA       0.050200
     16 H52         15.4430    56.1490    52.0720 h1         1 ARA       0.050200
     17 HO1         15.6740    57.0070    56.4810 ho         1 ARA       0.417000
     18 HO2         11.2590    57.1660    55.7410 ho         1 ARA       0.422000
     19 HO3         10.6240    56.2380    52.8330 ho         1 ARA       0.408000
     20 HO4         13.8860    57.8330    51.1580 ho         1 ARA       0.404000
@<TRIPOS>BOND
     1     1     2 1   
     2     1     6 1   
     3     1    10 1   
     4     1    11 1   
     5     2     3 1   
     6     2     7 1   
     7     2    12 1   
     8     3     4 1   
     9     3     8 1   
    10     3    13 1   
    11     4     5 1   
    12     4     9 1   
    13     4    14 1   
    14     5    10 1   
    15     5    15 1   
    16     5    16 1   
    17     6    17 1   
    18     7    18 1   
    19     8    19 1   
    20     9    20 1   
@<TRIPOS>SUBSTRUCTURE
     1 ARA         1 TEMP              0 ****  ****    0 ROOT
