@<TRIPOS>MOLECULE
ARA
   20    20     1     0     0
SMALL
No Charge or Current Charge


@<TRIPOS>ATOM
      1 C1          14.3550    56.6260    55.2020 c6         1 ARA       0.400300
      2 C2          12.8830    57.0910    54.8990 c6         1 ARA       0.152300
      3 C3          12.3140    56.2590    53.7060 c6         1 ARA       0.139300
      4 C4          13.2730    56.3220    52.4790 c6         1 ARA       0.109300
      5 C5          14.7040    55.9000    52.9370 c6         1 ARA       0.133600
      6 O1          15.0040    57.4640    56.1380 oh         1 ARA      -0.678000
      7 O2          11.9920    56.9740    56.0380 oh         1 ARA      -0.711000
      8 O3          11.0190    56.7530    53.3240 oh         1 ARA      -0.704000
      9 O4          13.2530    57.6580    51.9300 oh         1 ARA      -0.688000
     10 O5          15.1630    56.7350    54.0250 os         1 ARA      -0.475000
     11 H1          14.3610    55.5850    55.5610 h2         1 ARA       0.018700
     12 H2          12.9400    58.1430    54.5800 h1         1 ARA       0.088700
     13 H3          12.2330    55.2080    54.0240 h1         1 ARA       0.034700
     14 H4          12.9280    55.6030    51.7220 h1         1 ARA       0.031700
     15 H51         14.7010    54.8490    53.2640 h1         1 ARA       0.050200
     16 H52         15.4090    55.9840    52.0980 h1         1 ARA       0.050200
     17 HO1         15.8250    57.7120    55.6600 ho         1 ARA       0.516000
     18 HO2         11.0850    56.9670    55.6460 ho         1 ARA       0.521000
     19 HO3         11.2200    57.4020    52.6050 ho         1 ARA       0.507000
     20 HO4         14.0080    57.7270    51.2990 ho         1 ARA       0.503000
@<TRIPOS>BOND
     1     1     2 1   
     2     1     6 1   
     3     1    10 1   
     4     1    11 1   
     5     2     3 1   
     6     2     7 1   
     7     2    12 1   
     8     3     4 1   
     9     3     8 1   
    10     3    13 1   
    11     4     5 1   
    12     4     9 1   
    13     4    14 1   
    14     5    10 1   
    15     5    15 1   
    16     5    16 1   
    17     6    17 1   
    18     7    18 1   
    19     8    19 1   
    20     9    20 1   
@<TRIPOS>SUBSTRUCTURE
     1 ARA         1 TEMP              0 ****  ****    0 ROOT
