@<TRIPOS>MOLECULE
ARB
   20    20     1     0     0
SMALL
abcg2


@<TRIPOS>ATOM
      1 C1          14.3780    56.9230    55.1710 c6         1 ARB       0.383300
      2 C2          12.9260    57.2690    54.8370 c6         1 ARB       0.162300
      3 C3          12.4170    56.3830    53.7030 c6         1 ARB       0.142300
      4 C4          13.3490    56.4920    52.4970 c6         1 ARB       0.109300
      5 C5          14.7670    56.1800    52.9550 c6         1 ARB       0.122600
      6 O1          14.4130    55.6540    55.7400 oh         1 ARB      -0.725000
      7 O2          12.1590    57.1330    56.0060 oh         1 ARB      -0.706000
      8 O3          11.0950    56.7780    53.4240 oh         1 ARB      -0.710000
      9 O4          13.2330    57.7880    51.9580 oh         1 ARB      -0.696000
     10 O5          15.1740    57.0190    54.0200 os         1 ARB      -0.471000
     11 H1          14.7860    57.6750    55.8570 h2         1 ARB       0.077700
     12 H2          12.9260    58.3110    54.4900 h1         1 ARB       0.070700
     13 H3          12.4470    55.3370    54.0390 h1         1 ARB       0.057700
     14 H4          13.0640    55.7280    51.7570 h1         1 ARB       0.032700
     15 H51         14.8380    55.1210    53.2270 h1         1 ARB       0.054700
     16 H52         15.4750    56.3480    52.1410 h1         1 ARB       0.054700
     17 HO1         15.2850    55.5090    56.1240 ho         1 ARB       0.512000
     18 HO2         11.2540    57.3800    55.7900 ho         1 ARB       0.520000
     19 HO3         10.6670    56.0830    52.9140 ho         1 ARB       0.507000
     20 HO4         13.8070    57.8480    51.1880 ho         1 ARB       0.502000
@<TRIPOS>BOND
     1     1     2 1   
     2     1     6 1   
     3     1    10 1   
     4     1    11 1   
     5     2     3 1   
     6     2     7 1   
     7     2    12 1   
     8     3     4 1   
     9     3     8 1   
    10     3    13 1   
    11     4     5 1   
    12     4     9 1   
    13     4    14 1   
    14     5    10 1   
    15     5    15 1   
    16     5    16 1   
    17     6    17 1   
    18     7    18 1   
    19     8    19 1   
    20     9    20 1   
@<TRIPOS>SUBSTRUCTURE
     1 ARB         1 TEMP              0 ****  ****    0 ROOT
