@<TRIPOS>MOLECULE
ARB
   20    20     1     0     0
SMALL
No Charge or Current Charge


@<TRIPOS>ATOM
      1 C1          14.3940    57.0250    55.2010 c6         1 ARB       0.383300
      2 C2          12.8730    57.2830    54.8840 c6         1 ARB       0.162300
      3 C3          12.3590    56.2780    53.8050 c6         1 ARB       0.142300
      4 C4          13.2700    56.3220    52.5410 c6         1 ARB       0.109300
      5 C5          14.7490    56.0860    52.9740 c6         1 ARB       0.122600
      6 O1          14.6350    55.7550    55.8160 oh         1 ARB      -0.725000
      7 O2          12.0190    57.2400    56.0540 oh         1 ARB      -0.706000
      8 O3          11.0080    56.6000    53.4260 oh         1 ARB      -0.710000
      9 O4          13.0970    57.5910    51.8720 oh         1 ARB      -0.696000
     10 O5          15.1640    57.0480    53.9800 os         1 ARB      -0.471000
     11 H1          14.7500    57.8290    55.8640 h2         1 ARB       0.077700
     12 H2          12.8200    58.2910    54.4460 h1         1 ARB       0.070700
     13 H3          12.4010    55.2620    54.2260 h1         1 ARB       0.057700
     14 H4          12.9760    55.5040    51.8660 h1         1 ARB       0.032700
     15 H51         14.8670    55.0640    53.3640 h1         1 ARB       0.054700
     16 H52         15.4130    56.1770    52.1020 h1         1 ARB       0.054700
     17 HO1         15.6130    55.6950    55.8830 ho         1 ARB       0.512000
     18 HO2         11.1200    57.0470    55.6950 ho         1 ARB       0.520000
     19 HO3         11.1230    57.1970    52.6460 ho         1 ARB       0.507000
     20 HO4         13.8090    57.6650    51.1940 ho         1 ARB       0.502000
@<TRIPOS>BOND
     1     1     2 1   
     2     1     6 1   
     3     1    10 1   
     4     1    11 1   
     5     2     3 1   
     6     2     7 1   
     7     2    12 1   
     8     3     4 1   
     9     3     8 1   
    10     3    13 1   
    11     4     5 1   
    12     4     9 1   
    13     4    14 1   
    14     5    10 1   
    15     5    15 1   
    16     5    16 1   
    17     6    17 1   
    18     7    18 1   
    19     8    19 1   
    20     9    20 1   
@<TRIPOS>SUBSTRUCTURE
     1 ARB         1 TEMP              0 ****  ****    0 ROOT
