@<TRIPOS>MOLECULE
ARC
   63    62     1     0     0
SMALL
No Charge or Current Charge


@<TRIPOS>ATOM
      1 O1          -2.4290    -0.6490    -9.6880 oh         1 ARC      -0.664000
      2 C1          -1.2700    -0.9210    -8.8940 c3         1 ARC       0.164600
      3 C2          -1.3240    -0.0890    -7.5920 c3         1 ARC      -0.080400
      4 C3          -0.1840    -0.3870    -6.5760 c3         1 ARC      -0.056700
      5 C4           1.2160    -0.0580    -7.1580 c3         1 ARC      -0.088100
      6 C5          -0.4530     0.3490    -5.2320 c3         1 ARC      -0.073400
      7 C6           0.5050    -0.0220    -4.0740 c3         1 ARC      -0.073400
      8 C7           0.1100     0.6430    -2.7320 c3         1 ARC      -0.073400
      9 C8           0.9560     0.2060    -1.5010 c3         1 ARC      -0.056700
     10 C9           2.4540     0.5870    -1.6520 c3         1 ARC      -0.086100
     11 C10          0.3330     0.7740    -0.1930 c3         1 ARC      -0.073400
     12 C11          0.9610     0.2460     1.1200 c3         1 ARC      -0.073400
     13 C12          0.2140     0.7430     2.3830 c3         1 ARC      -0.073400
     14 C13          0.7160     0.1430     3.7280 c3         1 ARC      -0.056700
     15 C14          2.1920     0.5180     4.0250 c3         1 ARC      -0.086100
     16 C15         -0.2390     0.5510     4.8870 c3         1 ARC      -0.073400
     17 C16          0.0350    -0.1440     6.2430 c3         1 ARC      -0.073400
     18 C17         -1.0300     0.1940     7.3150 c3         1 ARC      -0.073400
     19 C18         -0.7420    -0.3870     8.7270 c3         1 ARC      -0.059700
     20 C19         -1.7620     0.1440     9.7600 c3         1 ARC      -0.086600
     21 C20         -0.6980    -1.9340     8.7470 c3         1 ARC      -0.086600
     22 HO1         -2.3540    -1.1990   -10.4990 ho         1 ARC       0.441000
     23 H11         -0.3630    -0.6690    -9.4590 h1         1 ARC       0.016200
     24 H12         -1.2270    -1.9880    -8.6400 h1         1 ARC       0.016200
     25 H21         -2.2880    -0.2850    -7.1060 hc         1 ARC       0.051700
     26 H22         -1.3140     0.9770    -7.8480 hc         1 ARC       0.051700
     27 H3          -0.2080    -1.4650    -6.3680 hc         1 ARC       0.043700
     28 H41          1.3080     1.0140    -7.3710 hc         1 ARC       0.032367
     29 H42          2.0140    -0.3400    -6.4620 hc         1 ARC       0.032367
     30 H43          1.4020    -0.6090    -8.0870 hc         1 ARC       0.032367
     31 H51         -1.4780     0.1250    -4.9100 hc         1 ARC       0.039200
     32 H52         -0.4110     1.4330    -5.3990 hc         1 ARC       0.039200
     33 H61          1.5220     0.2850    -4.3400 hc         1 ARC       0.038700
     34 H62          0.5150    -1.1120    -3.9480 hc         1 ARC       0.038700
     35 H71         -0.9420     0.4060    -2.5340 hc         1 ARC       0.037200
     36 H72          0.1670     1.7330    -2.8420 hc         1 ARC       0.037200
     37 H8           0.9000    -0.8880    -1.4400 hc         1 ARC       0.043700
     38 H91          2.5750     1.6750    -1.7190 hc         1 ARC       0.031700
     39 H92          3.0440     0.2260    -0.8030 hc         1 ARC       0.031700
     40 H93          2.8910     0.1360    -2.5500 hc         1 ARC       0.031700
     41 H101        -0.7360     0.5270    -0.1810 hc         1 ARC       0.036700
     42 H102         0.3980     1.8690    -0.2070 hc         1 ARC       0.036700
     43 H111         2.0050     0.5700     1.1720 hc         1 ARC       0.038700
     44 H112         0.9580    -0.8510     1.1070 hc         1 ARC       0.038700
     45 H121        -0.8490     0.4970     2.2670 hc         1 ARC       0.036700
     46 H122         0.2760     1.8370     2.4290 hc         1 ARC       0.036700
     47 H13          0.6670    -0.9490     3.6360 hc         1 ARC       0.043700
     48 H141         2.3060     1.6040     4.1260 hc         1 ARC       0.031367
     49 H142         2.5450     0.0490     4.9500 hc         1 ARC       0.031367
     50 H143         2.8590     0.1750     3.2270 hc         1 ARC       0.031367
     51 H151        -1.2700     0.3180     4.5900 hc         1 ARC       0.036700
     52 H152        -0.1950     1.6390     5.0260 hc         1 ARC       0.036700
     53 H161         1.0180     0.1570     6.6230 hc         1 ARC       0.038700
     54 H162         0.0650    -1.2280     6.0820 hc         1 ARC       0.038700
     55 H171        -2.0100    -0.1600     6.9720 hc         1 ARC       0.036700
     56 H172        -1.1030     1.2860     7.3940 hc         1 ARC       0.036700
     57 H18          0.2470    -0.0270     9.0390 hc         1 ARC       0.043700
     58 H191        -1.5230    -0.2220    10.7660 hc         1 ARC       0.031533
     59 H192        -1.7510     1.2400     9.7890 hc         1 ARC       0.031533
     60 H193        -2.7790    -0.1830     9.5090 hc         1 ARC       0.031533
     61 H201        -1.6390    -2.3570     8.3730 hc         1 ARC       0.031533
     62 H202         0.1230    -2.3170     8.1300 hc         1 ARC       0.031533
     63 H203        -0.5400    -2.3030     9.7680 hc         1 ARC       0.031533
@<TRIPOS>BOND
     1     1     2 1   
     2     1    22 1   
     3     2     3 1   
     4     2    23 1   
     5     2    24 1   
     6     3     4 1   
     7     3    25 1   
     8     3    26 1   
     9     4     5 1   
    10     4     6 1   
    11     4    27 1   
    12     5    28 1   
    13     5    29 1   
    14     5    30 1   
    15     6     7 1   
    16     6    31 1   
    17     6    32 1   
    18     7     8 1   
    19     7    33 1   
    20     7    34 1   
    21     8     9 1   
    22     8    35 1   
    23     8    36 1   
    24     9    10 1   
    25     9    11 1   
    26     9    37 1   
    27    10    38 1   
    28    10    39 1   
    29    10    40 1   
    30    11    12 1   
    31    11    41 1   
    32    11    42 1   
    33    12    13 1   
    34    12    43 1   
    35    12    44 1   
    36    13    14 1   
    37    13    45 1   
    38    13    46 1   
    39    14    15 1   
    40    14    16 1   
    41    14    47 1   
    42    15    48 1   
    43    15    49 1   
    44    15    50 1   
    45    16    17 1   
    46    16    51 1   
    47    16    52 1   
    48    17    18 1   
    49    17    53 1   
    50    17    54 1   
    51    18    19 1   
    52    18    55 1   
    53    18    56 1   
    54    19    20 1   
    55    19    21 1   
    56    19    57 1   
    57    20    58 1   
    58    20    59 1   
    59    20    60 1   
    60    21    61 1   
    61    21    62 1   
    62    21    63 1   
@<TRIPOS>SUBSTRUCTURE
     1 ARC         1 TEMP              0 ****  ****    0 ROOT
