@<TRIPOS>MOLECULE
ARC
   63    62     1     0     0
SMALL
abcg2


@<TRIPOS>ATOM
      1 O1          -2.3420    -0.6200    -9.5490 oh         1 ARC      -0.664000
      2 C1          -1.1440    -0.7750    -8.8130 c3         1 ARC       0.164600
      3 C2          -1.3230    -0.1240    -7.4550 c3         1 ARC      -0.080400
      4 C3          -0.1520    -0.3420    -6.4940 c3         1 ARC      -0.056700
      5 C4           1.1570     0.2080    -7.0550 c3         1 ARC      -0.088100
      6 C5          -0.4880     0.2700    -5.1300 c3         1 ARC      -0.073400
      7 C6           0.4830    -0.0840    -4.0090 c3         1 ARC      -0.073400
      8 C7           0.0700     0.5220    -2.6720 c3         1 ARC      -0.073400
      9 C8           0.9060     0.0750    -1.4700 c3         1 ARC      -0.056700
     10 C9           2.3810     0.4310    -1.6450 c3         1 ARC      -0.086100
     11 C10          0.3290     0.6680    -0.1830 c3         1 ARC      -0.073400
     12 C11          0.9100     0.1000     1.1060 c3         1 ARC      -0.073400
     13 C12          0.2230     0.6570     2.3480 c3         1 ARC      -0.073400
     14 C13          0.6940     0.0530     3.6740 c3         1 ARC      -0.056700
     15 C14          2.1490     0.4050     3.9740 c3         1 ARC      -0.086100
     16 C15         -0.2360     0.4920     4.8070 c3         1 ARC      -0.073400
     17 C16          0.0460    -0.1440     6.1630 c3         1 ARC      -0.073400
     18 C17         -1.0080     0.2230     7.2030 c3         1 ARC      -0.073400
     19 C18         -0.7010    -0.2460     8.6260 c3         1 ARC      -0.059700
     20 C19         -1.7530     0.2820     9.5970 c3         1 ARC      -0.086600
     21 C20         -0.6000    -1.7650     8.7230 c3         1 ARC      -0.086600
     22 HO1         -2.2100    -1.0070   -10.4180 ho         1 ARC       0.441000
     23 H11         -0.2990    -0.3210    -9.3440 h1         1 ARC       0.016200
     24 H12         -0.8950    -1.8370    -8.6750 h1         1 ARC       0.016200
     25 H21         -2.2310    -0.5260    -6.9950 hc         1 ARC       0.051700
     26 H22         -1.4880     0.9520    -7.5860 hc         1 ARC       0.051700
     27 H3          -0.0340    -1.4240    -6.3510 hc         1 ARC       0.043700
     28 H41          1.0620     1.2700    -7.2940 hc         1 ARC       0.032367
     29 H42          1.9770     0.1030    -6.3440 hc         1 ARC       0.032367
     30 H43          1.4610    -0.3090    -7.9650 hc         1 ARC       0.032367
     31 H51         -1.4910    -0.0580    -4.8360 hc         1 ARC       0.039200
     32 H52         -0.5460     1.3600    -5.2330 hc         1 ARC       0.039200
     33 H61          1.4900     0.2500    -4.2680 hc         1 ARC       0.038700
     34 H62          0.5380    -1.1750    -3.9110 hc         1 ARC       0.038700
     35 H71         -0.9790     0.2680    -2.4810 hc         1 ARC       0.037200
     36 H72          0.1070     1.6160    -2.7450 hc         1 ARC       0.037200
     37 H8           0.8250    -1.0180    -1.3950 hc         1 ARC       0.043700
     38 H91          2.5030     1.5100    -1.7800 hc         1 ARC       0.031700
     39 H92          2.9750     0.1380    -0.7800 hc         1 ARC       0.031700
     40 H93          2.8180    -0.0620    -2.5130 hc         1 ARC       0.031700
     41 H101        -0.7550     0.5000    -0.1760 hc         1 ARC       0.036700
     42 H102         0.4610     1.7570    -0.1960 hc         1 ARC       0.036700
     43 H111         1.9840     0.3000     1.1550 hc         1 ARC       0.038700
     44 H112         0.8060    -0.9910     1.0970 hc         1 ARC       0.038700
     45 H121        -0.8560     0.4870     2.2510 hc         1 ARC       0.036700
     46 H122         0.3520     1.7460     2.3810 hc         1 ARC       0.036700
     47 H13          0.6170    -1.0390     3.5830 hc         1 ARC       0.043700
     48 H141         2.2610     1.4810     4.1320 hc         1 ARC       0.031367
     49 H142         2.5110    -0.1000     4.8700 hc         1 ARC       0.031367
     50 H143         2.8140     0.1200     3.1590 hc         1 ARC       0.031367
     51 H151        -1.2680     0.2590     4.5190 hc         1 ARC       0.036700
     52 H152        -0.1900     1.5840     4.9030 hc         1 ARC       0.036700
     53 H161         1.0290     0.1660     6.5310 hc         1 ARC       0.038700
     54 H162         0.0930    -1.2310     6.0440 hc         1 ARC       0.038700
     55 H171        -1.9800    -0.1830     6.8950 hc         1 ARC       0.036700
     56 H172        -1.1280     1.3120     7.2110 hc         1 ARC       0.036700
     57 H18          0.2680     0.1780     8.9160 hc         1 ARC       0.043700
     58 H191        -1.5320    -0.0130    10.6250 hc         1 ARC       0.031533
     59 H192        -1.8100     1.3720     9.5680 hc         1 ARC       0.031533
     60 H193        -2.7430    -0.1070     9.3470 hc         1 ARC       0.031533
     61 H201        -1.5350    -2.2380     8.4110 hc         1 ARC       0.031533
     62 H202         0.1980    -2.1660     8.0950 hc         1 ARC       0.031533
     63 H203        -0.3960    -2.0800     9.7480 hc         1 ARC       0.031533
@<TRIPOS>BOND
     1     1     2 1   
     2     1    22 1   
     3     2     3 1   
     4     2    23 1   
     5     2    24 1   
     6     3     4 1   
     7     3    25 1   
     8     3    26 1   
     9     4     5 1   
    10     4     6 1   
    11     4    27 1   
    12     5    28 1   
    13     5    29 1   
    14     5    30 1   
    15     6     7 1   
    16     6    31 1   
    17     6    32 1   
    18     7     8 1   
    19     7    33 1   
    20     7    34 1   
    21     8     9 1   
    22     8    35 1   
    23     8    36 1   
    24     9    10 1   
    25     9    11 1   
    26     9    37 1   
    27    10    38 1   
    28    10    39 1   
    29    10    40 1   
    30    11    12 1   
    31    11    41 1   
    32    11    42 1   
    33    12    13 1   
    34    12    43 1   
    35    12    44 1   
    36    13    14 1   
    37    13    45 1   
    38    13    46 1   
    39    14    15 1   
    40    14    16 1   
    41    14    47 1   
    42    15    48 1   
    43    15    49 1   
    44    15    50 1   
    45    16    17 1   
    46    16    51 1   
    47    16    52 1   
    48    17    18 1   
    49    17    53 1   
    50    17    54 1   
    51    18    19 1   
    52    18    55 1   
    53    18    56 1   
    54    19    20 1   
    55    19    21 1   
    56    19    57 1   
    57    20    58 1   
    58    20    59 1   
    59    20    60 1   
    60    21    61 1   
    61    21    62 1   
    62    21    63 1   
@<TRIPOS>SUBSTRUCTURE
     1 ARC         1 TEMP              0 ****  ****    0 ROOT
