@<TRIPOS>MOLECULE
ARE
  108   112     1     0     0
SMALL
abcg2


@<TRIPOS>ATOM
      1 C1A          6.4920     1.3760     0.7530 c6         1 ARE       0.365300
      2 C2A          6.2810     2.6030     1.6410 c6         1 ARE       0.120300
      3 C3A          5.2570     3.5300     0.9920 c6         1 ARE       0.108300
      4 C4A          5.7130     3.8890    -0.4160 c6         1 ARE       0.150300
      5 C5A          5.9840     2.6140    -1.2190 c6         1 ARE       0.169300
      6 C6A          6.6040     2.9170    -2.5670 c3         1 ARE       0.168600
      7 O2A          5.9420     2.2750     2.9620 oh         1 ARE      -0.728000
      8 O3A          5.1160     4.7340     1.7120 oh         1 ARE      -0.668000
      9 O4A          4.7380     4.6310    -1.1080 oh         1 ARE      -0.721000
     10 O5A          6.8910     1.7720    -0.5220 os         1 ARE      -0.456000
     11 O6A          6.7260     1.7160    -3.2920 oh         1 ARE      -0.721000
     12 C1B          3.7040    -3.1450     1.0010 c6         1 ARE       0.363300
     13 C2B          4.2190    -2.5290     2.3020 c6         1 ARE       0.119300
     14 C3B          4.3810    -1.0250     2.1110 c6         1 ARE       0.131300
     15 C4B          5.3020    -0.7440     0.9320 c6         1 ARE       0.163300
     16 C5B          4.7930    -1.4750    -0.3180 c6         1 ARE       0.152300
     17 C6B          5.7840    -1.4140    -1.4610 c3         1 ARE       0.161600
     18 O2B          3.4200    -2.8310     3.4150 oh         1 ARE      -0.727000
     19 O3B          4.9480    -0.4180     3.2530 oh         1 ARE      -0.731000
     20 O4B          5.2970     0.6500     0.7130 os         1 ARE      -0.499000
     21 O5B          4.5820    -2.8520    -0.0400 os         1 ARE      -0.451000
     22 O6B          5.2020    -2.0120    -2.5970 oh         1 ARE      -0.722000
     23 C1C         -5.0500     0.1960    -1.7020 c6         1 ARE       0.366300
     24 C2C         -5.3990    -1.2910    -1.7100 c6         1 ARE       0.107300
     25 C3C         -4.5780    -2.0310    -0.6570 c6         1 ARE       0.153300
     26 C4C         -3.0910    -1.7720    -0.8830 c6         1 ARE       0.162500
     27 C5C         -2.8310    -0.2590    -0.9370 c6         1 ARE       0.153300
     28 C6C         -1.4120     0.0930    -1.3420 c3         1 ARE      -0.095100
     29 O2C         -6.7780    -1.5230    -1.5810 oh         1 ARE      -0.729000
     30 O3C         -4.8050    -3.4180    -0.7310 oh         1 ARE      -0.649000
     31 O5C         -3.6820     0.3670    -1.8930 os         1 ARE      -0.467000
     32 N4C         -2.2990    -2.3980     0.1660 n7         1 ARE      -0.850400
     33 C1H         -1.5420    -3.5780    -0.2350 c6         1 ARE       0.217700
     34 C2H         -0.9160    -4.2860     0.9650 c6         1 ARE       0.152300
     35 C3H          0.3070    -3.5000     1.4390 c6         1 ARE       0.121300
     36 C4H          1.3890    -3.5510     0.3750 c6         1 ARE       0.225500
     37 C5H          0.8360    -3.2090    -0.9860 c2         1 ARE      -0.133400
     38 C6H         -0.4680    -3.2690    -1.2470 c2         1 ARE      -0.238200
     39 C7H          1.8550    -2.8520    -2.0270 c3         1 ARE       0.201800
     40 O2H         -1.8650    -4.4370     1.9920 oh         1 ARE      -0.629000
     41 O3H          0.8550    -4.0280     2.6280 oh         1 ARE      -0.739000
     42 O4H          2.4200    -2.6520     0.7530 os         1 ARE      -0.501000
     43 O7H          1.2770    -2.8340    -3.3060 oh         1 ARE      -0.668000
     44 C1G         -7.5420     4.0330     0.9960 c6         1 ARE       0.358300
     45 C2G         -8.3730     2.8410     0.5170 c6         1 ARE       0.119300
     46 C3G         -7.4960     1.6010     0.4010 c6         1 ARE       0.165300
     47 C4G         -6.3000     1.8940    -0.4950 c6         1 ARE       0.160300
     48 C5G         -5.5540     3.1330     0.0190 c6         1 ARE       0.152300
     49 C6G         -4.4500     3.5710    -0.9190 c3         1 ARE       0.164600
     50 O1G         -7.1520     3.8070     2.3080 oh         1 ARE      -0.720000
     51 O2G         -9.4380     2.5410     1.3810 oh         1 ARE      -0.705000
     52 O3G         -8.2080     0.5250    -0.1700 oh         1 ARE      -0.734000
     53 O4G         -5.4690     0.7550    -0.4860 os         1 ARE      -0.493000
     54 O5G         -6.4560     4.2220     0.1260 os         1 ARE      -0.469000
     55 H1A          7.3080     0.7600     1.1490 h2         1 ARE       0.084700
     56 H2A          7.2400     3.1350     1.6830 h1         1 ARE       0.086700
     57 H3A          4.2900     3.0100     0.9210 h1         1 ARE       0.057700
     58 H4A          6.6560     4.4560    -0.3370 h1         1 ARE       0.049700
     59 H5A          5.0290     2.0940    -1.3820 h1         1 ARE       0.074700
     60 H6A1         5.9650     3.6390    -3.0860 h1         1 ARE       0.037200
     61 H6A2         7.5790     3.4000    -2.4120 h1         1 ARE       0.037200
     62 H9           5.4110     1.4610     2.9820 ho         1 ARE       0.539000
     63 H8           4.7340     4.5250     2.5700 ho         1 ARE       0.464000
     64 H7           4.5590     5.4320    -0.6050 ho         1 ARE       0.525000
     65 H6A          7.0940     1.9270    -4.1550 ho         1 ARE       0.505000
     66 H1B          3.6890    -4.2390     1.0810 h2         1 ARE       0.086700
     67 H2B          5.2110    -2.9580     2.4900 h1         1 ARE       0.085700
     68 H3B          3.3990    -0.5810     1.8940 h1         1 ARE       0.061700
     69 H4B          6.3160    -1.0990     1.1710 h1         1 ARE       0.061700
     70 H5B          3.8570    -0.9960    -0.6350 h1         1 ARE       0.072700
     71 H6B1         6.0440    -0.3700    -1.6530 h1         1 ARE       0.045700
     72 H6B2         6.7070    -1.9270    -1.1550 h1         1 ARE       0.045700
     73 H11          2.5070    -2.9990     3.1340 ho         1 ARE       0.536000
     74 H10          4.3400    -0.5380     3.9910 ho         1 ARE       0.528000
     75 H6B          5.7790    -1.8430    -3.3470 ho         1 ARE       0.508000
     76 H1C         -5.5380     0.7020    -2.5440 h2         1 ARE       0.078700
     77 H2C         -5.1120    -1.6810    -2.6940 h1         1 ARE       0.086700
     78 H3C         -4.8390    -1.6500     0.3420 h1         1 ARE       0.055700
     79 H4C         -2.8270    -2.1770    -1.8710 h1         1 ARE       0.057700
     80 H5C         -3.0270     0.1590     0.0610 h1         1 ARE       0.056700
     81 H6C1        -1.2900     1.1750    -1.3950 hc         1 ARE       0.048367
     82 H6C2        -0.6890    -0.2810    -0.6190 hc         1 ARE       0.048367
     83 H6C3        -1.1580    -0.3360    -2.3130 hc         1 ARE       0.048367
     84 H4          -7.1540    -0.9300    -0.9080 ho         1 ARE       0.537000
     85 H5          -5.7510    -3.5650    -0.6190 ho         1 ARE       0.454000
     86 H6          -1.6850    -1.7190     0.5970 hn         1 ARE       0.414000
     87 H1H         -2.2600    -4.2660    -0.6890 h1         1 ARE       0.096700
     88 H2H         -0.5710    -5.2690     0.6140 h1         1 ARE       0.044700
     89 H3H          0.0320    -2.4460     1.5950 h1         1 ARE       0.056700
     90 H4H          1.7960    -4.5730     0.3340 h1         1 ARE       0.061700
     91 H6H         -0.8090    -3.0420    -2.2500 ha         1 ARE       0.205000
     92 H7H1         2.2820    -1.8760    -1.7720 h1         1 ARE       0.043700
     93 H7H2         2.6890    -3.5660    -1.9730 h1         1 ARE       0.043700
     94 H13         -1.6540    -5.2390     2.4780 ho         1 ARE       0.440000
     95 H12          0.2370    -3.8650     3.3490 ho         1 ARE       0.522000
     96 H7H          1.9320    -2.4880    -3.9180 ho         1 ARE       0.453000
     97 H1G         -8.1280     4.9550     0.9080 h2         1 ARE       0.062700
     98 H2G         -8.7390     3.0910    -0.4880 h1         1 ARE       0.053700
     99 H3G         -7.1220     1.3270     1.3980 h1         1 ARE       0.077700
    100 H4G         -6.6640     2.0980    -1.5140 h1         1 ARE       0.056700
    101 H5G         -5.1130     2.8950     0.9970 h1         1 ARE       0.075700
    102 H6G1        -3.7630     2.7330    -1.0710 h1         1 ARE       0.036200
    103 H6G2        -4.8860     3.8140    -1.8990 h1         1 ARE       0.036200
    104 H3          -6.8040     4.6250     2.6780 ho         1 ARE       0.519000
    105 H2         -10.1620     3.1480     1.2040 ho         1 ARE       0.511000
    106 H1          -8.9120     0.2670     0.4360 ho         1 ARE       0.529000
    107 H6G         -3.0480     4.9030    -0.9140 ho         1 ARE       0.504000
    108 O6G         -3.7910     4.6770    -0.3480 oh         1 ARE      -0.711000
@<TRIPOS>BOND
     1     1     2 1   
     2     1    10 1   
     3     1    20 1   
     4     1    55 1   
     5     2     3 1   
     6     2     7 1   
     7     2    56 1   
     8     3     4 1   
     9     3     8 1   
    10     3    57 1   
    11     4     5 1   
    12     4     9 1   
    13     4    58 1   
    14     5     6 1   
    15     5    10 1   
    16     5    59 1   
    17     6    11 1   
    18     6    60 1   
    19     6    61 1   
    20     7    62 1   
    21     8    63 1   
    22     9    64 1   
    23    11    65 1   
    24    12    13 1   
    25    12    21 1   
    26    12    42 1   
    27    12    66 1   
    28    13    14 1   
    29    13    18 1   
    30    13    67 1   
    31    14    15 1   
    32    14    19 1   
    33    14    68 1   
    34    15    16 1   
    35    15    20 1   
    36    15    69 1   
    37    16    17 1   
    38    16    21 1   
    39    16    70 1   
    40    17    22 1   
    41    17    71 1   
    42    17    72 1   
    43    18    73 1   
    44    19    74 1   
    45    22    75 1   
    46    23    24 1   
    47    23    31 1   
    48    23    53 1   
    49    23    76 1   
    50    24    25 1   
    51    24    29 1   
    52    24    77 1   
    53    25    26 1   
    54    25    30 1   
    55    25    78 1   
    56    26    27 1   
    57    26    32 1   
    58    26    79 1   
    59    27    28 1   
    60    27    31 1   
    61    27    80 1   
    62    28    81 1   
    63    28    82 1   
    64    28    83 1   
    65    29    84 1   
    66    30    85 1   
    67    32    33 1   
    68    32    86 1   
    69    33    34 1   
    70    33    38 1   
    71    33    87 1   
    72    34    35 1   
    73    34    40 1   
    74    34    88 1   
    75    35    36 1   
    76    35    41 1   
    77    35    89 1   
    78    36    37 1   
    79    36    42 1   
    80    36    90 1   
    81    37    38 2   
    82    37    39 1   
    83    38    91 1   
    84    39    43 1   
    85    39    92 1   
    86    39    93 1   
    87    40    94 1   
    88    41    95 1   
    89    43    96 1   
    90    44    45 1   
    91    44    50 1   
    92    44    54 1   
    93    44    97 1   
    94    45    46 1   
    95    45    51 1   
    96    45    98 1   
    97    46    47 1   
    98    46    52 1   
    99    46    99 1   
   100    47    48 1   
   101    47    53 1   
   102    47   100 1   
   103    48    49 1   
   104    48    54 1   
   105    48   101 1   
   106    49   102 1   
   107    49   103 1   
   108    49   108 1   
   109    50   104 1   
   110    51   105 1   
   111    52   106 1   
   112   107   108 1   
@<TRIPOS>SUBSTRUCTURE
     1 ARE         1 TEMP              0 ****  ****    0 ROOT
