@<TRIPOS>MOLECULE
ARE
  108   112     1     0     0
SMALL
No Charge or Current Charge


@<TRIPOS>ATOM
      1 C1A          7.5580     1.2540     0.7540 c6         1 ARE       0.365300
      2 C2A          7.2430     2.7760     0.9650 c6         1 ARE       0.120300
      3 C3A          7.4120     3.5300    -0.3850 c6         1 ARE       0.108300
      4 C4A          8.8240     3.2630    -0.9820 c6         1 ARE       0.150300
      5 C5A          9.0380     1.7230    -1.1300 c6         1 ARE       0.169300
      6 C6A         10.4640     1.3690    -1.6690 c3         1 ARE       0.168600
      7 O2A          5.9150     3.0080     1.4970 oh         1 ARE      -0.728000
      8 O3A          7.1940     4.9400    -0.2000 oh         1 ARE      -0.668000
      9 O4A          8.9480     3.9590    -2.2340 oh         1 ARE      -0.721000
     10 O5A          8.8600     1.0700     0.1590 os         1 ARE      -0.456000
     11 O6A         10.7050    -0.0510    -1.7690 oh         1 ARE      -0.721000
     12 C1B          3.6850    -2.4260     0.8330 c6         1 ARE       0.363300
     13 C2B          4.1200    -1.4900     2.0140 c6         1 ARE       0.119300
     14 C3B          4.7560    -0.1980     1.4360 c6         1 ARE       0.131300
     15 C4B          5.9430    -0.5680     0.4870 c6         1 ARE       0.163300
     16 C5B          5.4120    -1.5100    -0.6340 c6         1 ARE       0.152300
     17 C6B          6.5520    -1.9690    -1.6010 c3         1 ARE       0.161600
     18 O2B          3.0280    -1.1370     2.8990 oh         1 ARE      -0.727000
     19 O3B          5.1320     0.6700     2.5230 oh         1 ARE      -0.731000
     20 O4B          6.5730     0.6080    -0.0810 os         1 ARE      -0.499000
     21 O5B          4.7990    -2.6930    -0.0450 os         1 ARE      -0.451000
     22 O6B          6.1000    -2.8800    -2.6270 oh         1 ARE      -0.722000
     23 C1C         -6.2150    -0.0100    -1.1910 c6         1 ARE       0.366300
     24 C2C         -6.0930    -1.5670    -1.1270 c6         1 ARE       0.107300
     25 C3C         -4.8760    -1.9660    -0.2440 c6         1 ARE       0.153300
     26 C4C         -3.5650    -1.2540    -0.7390 c6         1 ARE       0.162500
     27 C5C         -3.8310     0.2880    -0.8110 c6         1 ARE       0.153300
     28 C6C         -2.6480     1.0800    -1.4280 c3         1 ARE      -0.095100
     29 O2C         -7.2990    -2.2060    -0.6300 oh         1 ARE      -0.729000
     30 O3C         -4.7750    -3.4020    -0.2430 oh         1 ARE      -0.649000
     31 O5C         -4.9800     0.5800    -1.6400 os         1 ARE      -0.467000
     32 N4C         -2.3820    -1.5500     0.1340 n7         1 ARE      -0.850400
     33 C1H         -1.6000    -2.7510    -0.2640 c6         1 ARE       0.217700
     34 C2H         -0.8210    -3.3100     0.9670 c6         1 ARE       0.152300
     35 C3H          0.4940    -2.5150     1.1870 c6         1 ARE       0.121300
     36 C4H          1.4190    -2.6730    -0.0640 c6         1 ARE       0.225500
     37 C5H          0.6650    -2.3290    -1.3550 c2         1 ARE      -0.133400
     38 C6H         -0.6850    -2.3700    -1.4190 c2         1 ARE      -0.238200
     39 C7H          1.5520    -1.9960    -2.5500 c3         1 ARE       0.201800
     40 O2H         -1.6590    -3.1830     2.1240 oh         1 ARE      -0.629000
     41 O3H          1.1210    -2.9310     2.4210 oh         1 ARE      -0.739000
     42 O4H          2.6080    -1.8560     0.0570 os         1 ARE      -0.501000
     43 O7H          0.9970    -2.5280    -3.7620 oh         1 ARE      -0.668000
     44 C1G        -10.1230     2.6550     1.3280 c6         1 ARE       0.358300
     45 C2G        -10.2830     1.5820     0.1970 c6         1 ARE       0.119300
     46 C3G         -9.0690     0.6090     0.2000 c6         1 ARE       0.165300
     47 C4G         -7.7370     1.4210     0.0890 c6         1 ARE       0.160300
     48 C5G         -7.6760     2.4380     1.2650 c6         1 ARE       0.152300
     49 C6G         -6.3920     3.3290     1.2040 c3         1 ARE       0.164600
     50 O1G        -10.2040     2.0630     2.6210 oh         1 ARE      -0.720000
     51 O2G        -11.5170     0.8390     0.3370 oh         1 ARE      -0.705000
     52 O3G         -9.2300    -0.3700    -0.8490 oh         1 ARE      -0.734000
     53 O4G         -6.5700     0.5620     0.0870 os         1 ARE      -0.493000
     54 O5G         -8.8460     3.3110     1.2310 os         1 ARE      -0.469000
     55 H1A          7.5700     0.7780     1.7480 h2         1 ARE       0.084700
     56 H2A          7.9970     3.1620     1.6690 h1         1 ARE       0.086700
     57 H3A          6.6640     3.1310    -1.0870 h1         1 ARE       0.057700
     58 H4A          9.5750     3.6440    -0.2730 h1         1 ARE       0.049700
     59 H5A          8.3010     1.3210    -1.8410 h1         1 ARE       0.074700
     60 H6A1        10.5850     1.8370    -2.6550 h1         1 ARE       0.037200
     61 H6A2        11.2040     1.8290    -0.9990 h1         1 ARE       0.037200
     62 H9           5.5980     2.1240     1.8560 ho         1 ARE       0.539000
     63 H8           6.4510     4.9940     0.4470 ho         1 ARE       0.464000
     64 H7           8.4690     4.8120    -2.0880 ho         1 ARE       0.525000
     65 H6A         11.6450    -0.1650    -2.0450 ho         1 ARE       0.505000
     66 H1B          3.3610    -3.3840     1.2700 h2         1 ARE       0.086700
     67 H2B          4.8940    -2.0310     2.5800 h1         1 ARE       0.085700
     68 H3B          3.9910     0.3050     0.8240 h1         1 ARE       0.061700
     69 H4B          6.6980    -1.1290     1.0570 h1         1 ARE       0.061700
     70 H5B          4.6590    -0.9740    -1.2300 h1         1 ARE       0.072700
     71 H6B1         6.9900    -1.0740    -2.0630 h1         1 ARE       0.045700
     72 H6B2         7.3400    -2.4390    -0.9980 h1         1 ARE       0.045700
     73 H11          2.2890    -1.7910     2.7080 ho         1 ARE       0.536000
     74 H10          4.4700     0.4460     3.2290 ho         1 ARE       0.528000
     75 H6B          6.8980    -3.1640    -3.1320 ho         1 ARE       0.508000
     76 H1C         -6.9930     0.2310    -1.9320 h2         1 ARE       0.078700
     77 H2C         -5.8910    -1.9080    -2.1540 h1         1 ARE       0.086700
     78 H3C         -5.0750    -1.6160     0.7810 h1         1 ARE       0.055700
     79 H4C         -3.3560    -1.5900    -1.7650 h1         1 ARE       0.057700
     80 H5C         -4.0140     0.6770     0.2020 h1         1 ARE       0.056700
     81 H6C1        -2.9030     2.1420    -1.5350 hc         1 ARE       0.048367
     82 H6C2        -1.7530     1.0240    -0.7990 hc         1 ARE       0.048367
     83 H6C3        -2.3870     0.6960    -2.4210 hc         1 ARE       0.048367
     84 H4          -8.0270    -1.5150    -0.6860 ho         1 ARE       0.537000
     85 H5          -5.7130    -3.7030    -0.2310 ho         1 ARE       0.454000
     86 H6          -1.7380    -0.7530     0.0950 hn         1 ARE       0.414000
     87 H1H         -2.2810    -3.5490    -0.5990 h1         1 ARE       0.096700
     88 H2H         -0.5710    -4.3650     0.7820 h1         1 ARE       0.044700
     89 H3H          0.2290    -1.4490     1.2630 h1         1 ARE       0.056700
     90 H4H          1.7240    -3.7270    -0.1440 h1         1 ARE       0.061700
     91 H6H         -1.1900    -2.1490    -2.3590 ha         1 ARE       0.205000
     92 H7H1         1.6550    -0.9050    -2.6250 h1         1 ARE       0.043700
     93 H7H2         2.5590    -2.4080    -2.3980 h1         1 ARE       0.043700
     94 H13         -2.3260    -2.5200     1.8130 ho         1 ARE       0.440000
     95 H12          0.3660    -3.2610     2.9730 ho         1 ARE       0.522000
     96 H7H          1.6210    -2.2960    -4.4850 ho         1 ARE       0.453000
     97 H1G        -10.9190     3.4090     1.2180 h2         1 ARE       0.062700
     98 H2G        -10.2880     2.1170    -0.7650 h1         1 ARE       0.053700
     99 H3G         -9.0540     0.0950     1.1740 h1         1 ARE       0.077700
    100 H4G         -7.7460     2.0010    -0.8470 h1         1 ARE       0.056700
    101 H5G         -7.6570     1.8880     2.2170 h1         1 ARE       0.075700
    102 H6G1        -5.5140     2.6720     1.2630 h1         1 ARE       0.036200
    103 H6G2        -6.3640     3.8190     0.2210 h1         1 ARE       0.036200
    104 H3          -9.9750     2.7900     3.2430 ho         1 ARE       0.519000
    105 H2         -11.6730     0.7720     1.3110 ho         1 ARE       0.511000
    106 H1         -10.2130    -0.4360    -0.9660 ho         1 ARE       0.529000
    107 H6G         -5.5360     4.8730     2.0820 ho         1 ARE       0.504000
    108 O6G         -6.3340     4.3190     2.2520 oh         1 ARE      -0.711000
@<TRIPOS>BOND
     1     1     2 1   
     2     1    10 1   
     3     1    20 1   
     4     1    55 1   
     5     2     3 1   
     6     2     7 1   
     7     2    56 1   
     8     3     4 1   
     9     3     8 1   
    10     3    57 1   
    11     4     5 1   
    12     4     9 1   
    13     4    58 1   
    14     5     6 1   
    15     5    10 1   
    16     5    59 1   
    17     6    11 1   
    18     6    60 1   
    19     6    61 1   
    20     7    62 1   
    21     8    63 1   
    22     9    64 1   
    23    11    65 1   
    24    12    13 1   
    25    12    21 1   
    26    12    42 1   
    27    12    66 1   
    28    13    14 1   
    29    13    18 1   
    30    13    67 1   
    31    14    15 1   
    32    14    19 1   
    33    14    68 1   
    34    15    16 1   
    35    15    20 1   
    36    15    69 1   
    37    16    17 1   
    38    16    21 1   
    39    16    70 1   
    40    17    22 1   
    41    17    71 1   
    42    17    72 1   
    43    18    73 1   
    44    19    74 1   
    45    22    75 1   
    46    23    24 1   
    47    23    31 1   
    48    23    53 1   
    49    23    76 1   
    50    24    25 1   
    51    24    29 1   
    52    24    77 1   
    53    25    26 1   
    54    25    30 1   
    55    25    78 1   
    56    26    27 1   
    57    26    32 1   
    58    26    79 1   
    59    27    28 1   
    60    27    31 1   
    61    27    80 1   
    62    28    81 1   
    63    28    82 1   
    64    28    83 1   
    65    29    84 1   
    66    30    85 1   
    67    32    33 1   
    68    32    86 1   
    69    33    34 1   
    70    33    38 1   
    71    33    87 1   
    72    34    35 1   
    73    34    40 1   
    74    34    88 1   
    75    35    36 1   
    76    35    41 1   
    77    35    89 1   
    78    36    37 1   
    79    36    42 1   
    80    36    90 1   
    81    37    38 2   
    82    37    39 1   
    83    38    91 1   
    84    39    43 1   
    85    39    92 1   
    86    39    93 1   
    87    40    94 1   
    88    41    95 1   
    89    43    96 1   
    90    44    45 1   
    91    44    50 1   
    92    44    54 1   
    93    44    97 1   
    94    45    46 1   
    95    45    51 1   
    96    45    98 1   
    97    46    47 1   
    98    46    52 1   
    99    46    99 1   
   100    47    48 1   
   101    47    53 1   
   102    47   100 1   
   103    48    49 1   
   104    48    54 1   
   105    48   101 1   
   106    49   102 1   
   107    49   103 1   
   108    49   108 1   
   109    50   104 1   
   110    51   105 1   
   111    52   106 1   
   112   107   108 1   
@<TRIPOS>SUBSTRUCTURE
     1 ARE         1 TEMP              0 ****  ****    0 ROOT
