@<TRIPOS>MOLECULE
ARF
    6     5     1     0     0
SMALL
No Charge or Current Charge


@<TRIPOS>ATOM
      1 N            0.9970    -0.2630    -0.0400 nt         1 ARF      -0.619000
      2 C            1.6120    -0.9780     0.9290 c          1 ARF       0.602900
      3 O            0.9850    -1.4150     1.8820 o          1 ARF      -0.605100
      4 HN1          0.0060    -0.0880     0.0270 hn         1 ARF       0.310500
      5 HN2          1.5320     0.0910    -0.8210 hn         1 ARF       0.310500
      6 H            2.6970    -1.1120     0.7610 h5         1 ARF       0.001200
@<TRIPOS>BOND
     1     1     2 1   
     2     1     4 1   
     3     1     5 1   
     4     2     3 2   
     5     2     6 1   
@<TRIPOS>SUBSTRUCTURE
     1 ARF         1 TEMP              0 ****  ****    0 ROOT
