@<TRIPOS>MOLECULE
ARF
    6     5     1     0     0
SMALL
abcg2


@<TRIPOS>ATOM
      1 N            1.0000    -0.2670    -0.0350 nt         1 ARF      -0.619000
      2 C            1.5870    -0.9750     0.9320 c          1 ARF       0.602900
      3 O            1.0290    -1.4420     1.9110 o          1 ARF      -0.605100
      4 HN1          0.0120    -0.0650    -0.0140 hn         1 ARF       0.310500
      5 HN2          1.5350     0.0840    -0.8100 hn         1 ARF       0.310500
      6 H            2.6650    -1.1000     0.7530 h5         1 ARF       0.001200
@<TRIPOS>BOND
     1     1     2 1   
     2     1     4 1   
     3     1     5 1   
     4     2     3 2   
     5     2     6 1   
@<TRIPOS>SUBSTRUCTURE
     1 ARF         1 TEMP              0 ****  ****    0 ROOT
