@<TRIPOS>MOLECULE
ARH
   42    45     1     0     0
SMALL
bcc


@<TRIPOS>ATOM
      1 C1           1.3960    -0.2390     2.6820 cc         1 ARH      -0.292200
      2 C2           1.9970    -0.1510     1.3540 c          1 ARH       0.617900
      3 C3           1.0400    -0.0820     0.2520 cc         1 ARH      -0.165900
      4 C4          -0.3310    -0.1170     0.4260 cd         1 ARH      -0.189600
      5 C5          -0.9210    -0.2160     1.7470 c          1 ARH       0.607900
      6 C6           0.0620    -0.2730     2.8950 cd         1 ARH       0.077800
      7 N7           1.2990     0.0290    -1.0730 na         1 ARH       0.020900
      8 C8           0.1110     0.0590    -1.7540 cc         1 ARH      -0.053300
      9 C9          -0.9300    -0.0230    -0.8490 cd         1 ARH      -0.080300
     10 O10         -2.1140    -0.2400     1.9630 o          1 ARH      -0.494100
     11 O11          3.2080    -0.1330     1.1940 o          1 ARH      -0.537100
     12 N12         -0.4980    -0.4500     4.1240 nm         1 ARH      -0.577400
     13 C13         -1.3760     0.4880     4.7790 cx         1 ARH       0.123800
     14 C14         -0.0330     0.1710     5.3370 cx         1 ARH       0.101500
     15 C17          0.1500    -0.7010     6.5450 c3         1 ARH      -0.064100
     16 C25          2.6150     0.1760    -1.6700 c3         1 ARH       0.019600
     17 C32          0.0380     0.1420    -3.2200 ca         1 ARH      -0.033000
     18 C33         -2.3830    -0.0860    -1.1720 c3         1 ARH       0.212700
     19 O34         -2.8440    -1.4020    -0.9420 oh         1 ARH      -0.584800
     20 C38          0.5340    -0.8910    -4.0160 ca         1 ARH      -0.108500
     21 C39          0.4460    -0.8180    -5.3980 ca         1 ARH      -0.131000
     22 C40         -0.1450     0.2860    -6.0000 ca         1 ARH      -0.117000
     23 C41         -0.6450     1.3160    -5.2150 ca         1 ARH      -0.131000
     24 C42         -0.5520     1.2460    -3.8320 ca         1 ARH      -0.108500
     25 HC1          2.0850    -0.2890     3.5180 ha         1 ARH       0.156000
     26 H131        -2.2640     0.0660     5.2340 h1         1 ARH       0.086700
     27 H132        -1.5150     1.4610     4.3200 h1         1 ARH       0.086700
     28 HC41         0.7200     0.9450     5.2050 h1         1 ARH       0.075700
     29 H171         0.1350    -0.0950     7.4510 hc         1 ARH       0.048033
     30 H172        -0.6390    -1.4480     6.6220 hc         1 ARH       0.048033
     31 H173         1.1090    -1.2200     6.5070 hc         1 ARH       0.048033
     32 H251         3.1970    -0.7360    -1.5570 h1         1 ARH       0.066033
     33 H252         2.5020     0.3910    -2.7260 h1         1 ARH       0.066033
     34 H253         3.1490     0.9990    -1.2040 h1         1 ARH       0.066033
     35 H331        -2.9220     0.6390    -0.5540 h1         1 ARH       0.028700
     36 H332        -2.5360     0.2120    -2.2160 h1         1 ARH       0.028700
     37 HO43        -3.8050    -1.3830    -0.9680 ho         1 ARH       0.403000
     38 HC83         0.9820    -1.7610    -3.5510 ha         1 ARH       0.138000
     39 HC93         0.8330    -1.6260    -6.0030 ha         1 ARH       0.134500
     40 HC04        -0.2160     0.3420    -7.0790 ha         1 ARH       0.133000
     41 HC14        -1.1050     2.1790    -5.6790 ha         1 ARH       0.134500
     42 HC24        -0.9330     2.0580    -3.2250 ha         1 ARH       0.138000
@<TRIPOS>BOND
     1     1     2 1   
     2     1     6 2   
     3     1    25 1   
     4     2     3 1   
     5     2    11 2   
     6     3     4 2   
     7     3     7 1   
     8     4     5 1   
     9     4     9 1   
    10     5     6 1   
    11     5    10 2   
    12     6    12 1   
    13     7     8 1   
    14     7    16 1   
    15     8     9 2   
    16     8    17 1   
    17     9    18 1   
    18    12    13 1   
    19    12    14 1   
    20    13    14 1   
    21    13    26 1   
    22    13    27 1   
    23    14    15 1   
    24    14    28 1   
    25    15    29 1   
    26    15    30 1   
    27    15    31 1   
    28    16    32 1   
    29    16    33 1   
    30    16    34 1   
    31    17    20 ar  
    32    17    24 ar  
    33    18    19 1   
    34    18    35 1   
    35    18    36 1   
    36    19    37 1   
    37    20    21 ar  
    38    20    38 1   
    39    21    22 ar  
    40    21    39 1   
    41    22    23 ar  
    42    22    40 1   
    43    23    24 ar  
    44    23    41 1   
    45    24    42 1   
@<TRIPOS>SUBSTRUCTURE
     1 ARH         1 TEMP              0 ****  ****    0 ROOT
