@<TRIPOS>MOLECULE
ARH
   42    45     1     0     0
SMALL
No Charge or Current Charge


@<TRIPOS>ATOM
      1 C1           1.4060    -0.2720     2.7460 cc         1 ARH      -0.342200
      2 C2           2.0530    -0.1640     1.4340 c          1 ARH       0.617900
      3 C3           1.1310    -0.0660     0.2800 cc         1 ARH      -0.216600
      4 C4          -0.2450    -0.0940     0.4030 cd         1 ARH      -0.189600
      5 C5          -0.9200    -0.2160     1.7340 c          1 ARH       0.607900
      6 C6           0.0350    -0.2940     2.9130 cd         1 ARH       0.077800
      7 N7           1.4060     0.0450    -1.0850 na         1 ARH       0.093000
      8 C8           0.2040     0.1030    -1.7880 cc         1 ARH      -0.104000
      9 C9          -0.8340    -0.0060    -0.8920 cd         1 ARH      -0.080300
     10 O10         -2.1420    -0.2400     1.8540 o          1 ARH      -0.494100
     11 O11          3.2710    -0.1550     1.3220 o          1 ARH      -0.537100
     12 N12         -0.5060    -0.4110     4.1870 nm         1 ARH      -0.577400
     13 C13         -1.4340     0.5090     4.8490 cx         1 ARH       0.123800
     14 C14         -0.0590     0.2300     5.4210 cx         1 ARH       0.101500
     15 C17          0.1330    -0.6770     6.6260 c3         1 ARH      -0.064100
     16 C25          2.7470     0.1200    -1.6860 c3         1 ARH       0.048900
     17 C32          0.0190     0.1560    -3.2370 ca         1 ARH      -0.033000
     18 C33         -2.3160    -0.0630    -1.2100 c3         1 ARH       0.235900
     19 O34         -2.7870    -1.4170    -1.2020 oh         1 ARH      -0.647000
     20 C38          0.5370    -0.8680    -4.0530 ca         1 ARH      -0.090500
     21 C39          0.3750    -0.8150    -5.4490 ca         1 ARH      -0.113000
     22 C40         -0.3020     0.2670    -6.0370 ca         1 ARH      -0.099000
     23 C41         -0.8150     1.2950    -5.2290 ca         1 ARH      -0.113000
     24 C42         -0.6520     1.2410    -3.8330 ca         1 ARH      -0.090500
     25 HC1          2.0850    -0.3450     3.5850 ha         1 ARH       0.206000
     26 H131        -2.3020     0.0670     5.3380 h1         1 ARH       0.086700
     27 H132        -1.6090     1.4710     4.3660 h1         1 ARH       0.086700
     28 HC41         0.6980     1.0090     5.3210 h1         1 ARH       0.075700
     29 H171         0.1230    -0.0930     7.5540 hc         1 ARH       0.048033
     30 H172        -0.6590    -1.4330     6.6940 hc         1 ARH       0.048033
     31 H173         1.0950    -1.1990     6.5670 hc         1 ARH       0.048033
     32 H251         3.2410    -0.8550    -1.6000 h1         1 ARH       0.066033
     33 H252         2.6750     0.3980    -2.7440 h1         1 ARH       0.066033
     34 H253         3.3420     0.8780    -1.1630 h1         1 ARH       0.066033
     35 H331        -2.8660     0.5390    -0.4750 h1         1 ARH       0.028700
     36 H332        -2.5040     0.3900    -2.1900 h1         1 ARH       0.028700
     37 HO43        -3.7510    -1.3780    -1.3780 ho         1 ARH       0.442000
     38 HC83         1.0590    -1.7100    -3.6030 ha         1 ARH       0.120000
     39 HC93         0.7740    -1.6110    -6.0730 ha         1 ARH       0.116500
     40 HC04        -0.4270     0.3090    -7.1170 ha         1 ARH       0.115000
     41 HC14        -1.3350     2.1360    -5.6830 ha         1 ARH       0.116500
     42 HC24        -1.0410     2.0460    -3.2140 ha         1 ARH       0.120000
@<TRIPOS>BOND
     1     1     2 1   
     2     1     6 2   
     3     1    25 1   
     4     2     3 1   
     5     2    11 2   
     6     3     4 2   
     7     3     7 1   
     8     4     5 1   
     9     4     9 1   
    10     5     6 1   
    11     5    10 2   
    12     6    12 1   
    13     7     8 1   
    14     7    16 1   
    15     8     9 2   
    16     8    17 1   
    17     9    18 1   
    18    12    13 1   
    19    12    14 1   
    20    13    14 1   
    21    13    26 1   
    22    13    27 1   
    23    14    15 1   
    24    14    28 1   
    25    15    29 1   
    26    15    30 1   
    27    15    31 1   
    28    16    32 1   
    29    16    33 1   
    30    16    34 1   
    31    17    20 ar  
    32    17    24 ar  
    33    18    19 1   
    34    18    35 1   
    35    18    36 1   
    36    19    37 1   
    37    20    21 ar  
    38    20    38 1   
    39    21    22 ar  
    40    21    39 1   
    41    22    23 ar  
    42    22    40 1   
    43    23    24 ar  
    44    23    41 1   
    45    24    42 1   
@<TRIPOS>SUBSTRUCTURE
     1 ARH         1 TEMP              0 ****  ****    0 ROOT
