@<TRIPOS>MOLECULE
ARI
   26    26     1     0     0
SMALL
bcc


@<TRIPOS>ATOM
      1 O1           8.4990     3.1370    -4.7340 oh         1 ARI      -0.574800
      2 C1           9.2570     2.3500    -5.5780 c6         1 ARI       0.351900
      3 C2           8.5210     2.1630    -6.8910 c6         1 ARI      -0.101400
      4 C3           9.4040     1.4010    -7.8740 c6         1 ARI      -0.099400
      5 C4          10.7820     2.0380    -7.9940 c6         1 ARI       0.118100
      6 O4          10.6890     3.3270    -8.6160 os         1 ARI      -0.411900
      7 CME         10.5520     4.8320   -10.3990 c3         1 ARI      -0.157100
      8 CO4         10.6710     3.4070    -9.9440 c          1 ARI       0.642100
      9 OC4         10.7400     2.4510   -10.6750 o          1 ARI      -0.543000
     10 C5          11.3780     2.2520    -6.6070 c6         1 ARI       0.166100
     11 O5          10.4950     2.9980    -5.7940 os         1 ARI      -0.437600
     12 C6          12.7250     2.9480    -6.6200 c3         1 ARI      -0.084100
     13 HO1          8.8650     3.0920    -3.8440 ho         1 ARI       0.417000
     14 H1           9.4580     1.3580    -5.1350 h2         1 ARI       0.007700
     15 H2           7.5950     1.6110    -6.7170 hc         1 ARI       0.066700
     16 H22          8.2470     3.1400    -7.2970 hc         1 ARI       0.066700
     17 H3           9.5490     0.3750    -7.5210 hc         1 ARI       0.057700
     18 H32          8.9250     1.3210    -8.8500 hc         1 ARI       0.057700
     19 H4          11.4520     1.3930    -8.5680 h1         1 ARI       0.070700
     20 H41         10.6250     4.8930   -11.4810 hc         1 ARI       0.069700
     21 H42          9.5930     5.2470   -10.0860 hc         1 ARI       0.069700
     22 H43         11.3310     5.4490    -9.9500 hc         1 ARI       0.069700
     23 H5          11.5140     1.2420    -6.1860 h1         1 ARI       0.031700
     24 H61         13.1470     2.9820    -5.6160 hc         1 ARI       0.048367
     25 H62         13.4210     2.4010    -7.2560 hc         1 ARI       0.048367
     26 H63         12.6510     3.9680    -6.9950 hc         1 ARI       0.048367
@<TRIPOS>BOND
     1     1     2 1   
     2     1    13 1   
     3     2     3 1   
     4     2    11 1   
     5     2    14 1   
     6     3     4 1   
     7     3    15 1   
     8     3    16 1   
     9     4     5 1   
    10     4    17 1   
    11     4    18 1   
    12     5     6 1   
    13     5    10 1   
    14     5    19 1   
    15     6     8 1   
    16     7     8 1   
    17     7    20 1   
    18     7    21 1   
    19     7    22 1   
    20     8     9 2   
    21    10    11 1   
    22    10    12 1   
    23    10    23 1   
    24    12    24 1   
    25    12    25 1   
    26    12    26 1   
@<TRIPOS>SUBSTRUCTURE
     1 ARI         1 TEMP              0 ****  ****    0 ROOT
