@<TRIPOS>MOLECULE
ARI
   26    26     1     0     0
SMALL
No Charge or Current Charge


@<TRIPOS>ATOM
      1 O1           8.4850     3.0390    -4.6580 oh         1 ARI      -0.637000
      2 C1           9.2170     2.2140    -5.5300 c6         1 ARI       0.398300
      3 C2           8.5100     2.1020    -6.9020 c6         1 ARI      -0.101400
      4 C3           9.4200     1.3650    -7.9210 c6         1 ARI      -0.099400
      5 C4          10.8250     2.0300    -7.9890 c6         1 ARI       0.141300
      6 O4          10.7550     3.3220    -8.6400 os         1 ARI      -0.435100
      7 CME         10.5070     4.8830   -10.4340 c3         1 ARI      -0.157100
      8 CO4         10.5740     3.4280    -9.9930 c          1 ARI       0.593100
      9 OC4         10.5380     2.4810   -10.7670 o          1 ARI      -0.494000
     10 C5          11.4010     2.1640    -6.5400 c6         1 ARI       0.189300
     11 O5          10.4760     2.8700    -5.6790 os         1 ARI      -0.484000
     12 C6          12.7500     2.9240    -6.4860 c3         1 ARI      -0.084100
     13 HO1          9.1290     3.7450    -4.4440 ho         1 ARI       0.456000
     14 H1           9.3610     1.2190    -5.0840 h2         1 ARI       0.007700
     15 H2           7.5590     1.5650    -6.7870 hc         1 ARI       0.066700
     16 H22          8.2640     3.1040    -7.2770 hc         1 ARI       0.066700
     17 H3           9.5330     0.3160    -7.6150 hc         1 ARI       0.057700
     18 H32          8.9440     1.3440    -8.9100 hc         1 ARI       0.057700
     19 H4          11.5040     1.3870    -8.5680 h1         1 ARI       0.070700
     20 H41         10.4100     4.9900   -11.5200 hc         1 ARI       0.069700
     21 H42          9.6880     5.3750    -9.8980 hc         1 ARI       0.069700
     22 H43         11.3860     5.4100   -10.0490 hc         1 ARI       0.069700
     23 H5          11.5630     1.1570    -6.1270 h1         1 ARI       0.031700
     24 H61         13.1440     2.9470    -5.4640 hc         1 ARI       0.048367
     25 H62         13.5000     2.4360    -7.1190 hc         1 ARI       0.048367
     26 H63         12.6430     3.9590    -6.8290 hc         1 ARI       0.048367
@<TRIPOS>BOND
     1     1     2 1   
     2     1    13 1   
     3     2     3 1   
     4     2    11 1   
     5     2    14 1   
     6     3     4 1   
     7     3    15 1   
     8     3    16 1   
     9     4     5 1   
    10     4    17 1   
    11     4    18 1   
    12     5     6 1   
    13     5    10 1   
    14     5    19 1   
    15     6     8 1   
    16     7     8 1   
    17     7    20 1   
    18     7    21 1   
    19     7    22 1   
    20     8     9 2   
    21    10    11 1   
    22    10    12 1   
    23    10    23 1   
    24    12    24 1   
    25    12    25 1   
    26    12    26 1   
@<TRIPOS>SUBSTRUCTURE
     1 ARI         1 TEMP              0 ****  ****    0 ROOT
