@<TRIPOS>MOLECULE
ARJ
   32    34     1     0     0
SMALL
bcc


@<TRIPOS>ATOM
      1 H2           3.2390    -1.5000    -1.1890 ca         1 ARJ       0.049000
      2 H4           1.7400    -0.1770    -0.2810 ca         1 ARJ       0.075000
      3 H5           2.7110     0.6140     0.3130 ca         1 ARJ      -0.243000
      4 H6           4.0480     0.2390     0.0830 ca         1 ARJ       0.261000
      5 H2          -1.0420    -1.8960     1.3230 oh         1 ARJ      -0.285000
      6 H7          -1.5530    -0.6830     0.8810 c5         1 ARJ      -0.032000
      7 H3D         -2.9620    -0.7440     0.3040 c          1 ARJ       0.203000
      8 H3D         -3.8060    -1.5140     0.6810 o          1 ARJ      -0.233000
      9 H9          -3.0800     0.2760    -0.8130 c5         1 ARJ      -0.166000
     10 H11         -4.2210     1.2690    -0.6600 c3         1 ARJ       0.011000
     11 H6          -5.4480     0.6000    -0.7920 oh         1 ARJ      -0.309000
     12 H10         -1.7060     0.9560    -0.8470 c5         1 ARJ      -0.169000
     13 H1          -0.7600    -0.1030    -0.2810 c5         1 ARJ       0.041000
     14 H9           0.5500     0.3850     0.0760 na         1 ARJ      -0.157000
     15 H8           0.8590     1.4620     0.8600 cc         1 ARJ      -0.060000
     16 H7           2.1380     1.6350     1.0250 n2         1 ARJ      -0.120000
     17 H3           1.9500    -1.2470    -1.0450 nb         1 ARJ      -0.216000
     18 H1           4.2750    -0.8360    -0.6800 nb         1 ARJ      -0.303000
     19 H6           5.0830     0.9080     0.5930 nv         1 ARJ      -0.353000
     20 H2           3.4930    -2.3600    -1.7990 ha         1 ARJ       0.184000
     21 HO2         -1.5910    -2.2200     2.0460 ha         1 ARJ       0.223000
     22 H3          -1.5890     0.0760     1.6830 ha         1 ARJ       0.089000
     23 H4          -3.2260    -0.2880    -1.7420 ha         1 ARJ       0.140000
     24 H6          -4.1300     1.7730     0.3120 ha         1 ARJ       0.060000
     25 H6A         -4.0940     2.0420    -1.4290 ha         1 ARJ       0.060000
     26 HO6         -6.1530     1.2370    -0.6440 ha         1 ARJ       0.209000
     27 H5          -1.4160     1.2740    -1.8470 ha         1 ARJ       0.101000
     28 H5A         -1.7100     1.8420    -0.2040 ha         1 ARJ       0.101000
     29 H1          -0.6040    -0.8860    -1.0290 ha         1 ARJ       0.155000
     30 H8           0.0930     2.0920     1.2860 ha         1 ARJ       0.191000
     31 HN6          4.9460     1.7310     1.1530 ha         1 ARJ       0.247500
     32 HN6A         6.0240     0.6170     0.3950 ha         1 ARJ       0.247500
@<TRIPOS>BOND
     1     1    17 ar  
     2     1    18 ar  
     3     1    20 1   
     4     2     3 ar  
     5     2    14 1   
     6     2    17 ar  
     7     3     4 ar  
     8     3    16 1   
     9     4    18 ar  
    10     4    19 1   
    11     5     6 1   
    12     5    21 1   
    13     6     7 1   
    14     6    13 1   
    15     6    22 1   
    16     7     8 2   
    17     7     9 1   
    18     9    10 1   
    19     9    12 1   
    20     9    23 1   
    21    10    11 1   
    22    10    24 1   
    23    10    25 1   
    24    11    26 1   
    25    12    13 1   
    26    12    27 1   
    27    12    28 1   
    28    13    14 1   
    29    13    29 1   
    30    14    15 1   
    31    15    16 2   
    32    15    30 1   
    33    19    31 1   
    34    19    32 1   
@<TRIPOS>SUBSTRUCTURE
     1 ARJ         1 TEMP              0 ****  ****    0 ROOT
