@<TRIPOS>MOLECULE
ARJ
   32    34     1     0     0
SMALL
No Charge or Current Charge


@<TRIPOS>ATOM
      1 C2           3.1610    -0.6520    -1.9730 ca         1 ARJ       0.185900
      2 C4           1.6920    -0.1560    -0.2910 ca         1 ARJ       0.138500
      3 C5           2.7150     0.3950     0.4390 ca         1 ARJ      -0.103600
      4 C6           4.0080     0.3910    -0.1210 ca         1 ARJ       0.453900
      5 O2          -1.6410    -1.2900     2.3230 oh         1 ARJ      -0.620000
      6 C7          -1.8700    -0.3550     1.2440 c5         1 ARJ       0.052300
      7 C3D         -3.1680    -0.6640     0.4530 c          1 ARJ       0.542100
      8 O3D         -4.0280    -1.4880     0.7450 o          1 ARJ      -0.472100
      9 C9          -2.9800     0.0350    -0.9030 c5         1 ARJ      -0.176700
     10 C11         -3.8800     1.2840    -1.0210 c3         1 ARJ       0.184600
     11 O6          -5.2570     0.9080    -0.9880 oh         1 ARJ      -0.644000
     12 C10         -1.4530     0.3830    -1.0070 c5         1 ARJ      -0.090400
     13 C1          -0.7870    -0.4570     0.1260 c5         1 ARJ       0.090300
     14 N9           0.5710    -0.0150     0.4780 na         1 ARJ      -0.269300
     15 C8           0.9610     0.6220     1.6660 cc         1 ARJ       0.395700
     16 N7           2.2800     0.8940     1.6710 nd         1 ARJ      -0.547100
     17 N3           1.8880    -0.6940    -1.5120 nb         1 ARJ      -0.216000
     18 N1           4.2380    -0.1320    -1.3360 nb         1 ARJ      -0.303000
     19 N6           5.0870     0.9160     0.5190 nv         1 ARJ      -1.065900
     20 H2           3.3370    -1.0810    -2.9580 h5         1 ARJ       0.047100
     21 HO2         -2.4910    -1.4000     2.8100 ho         1 ARJ       0.463000
     22 H3          -1.9520     0.6720     1.6270 h1         1 ARJ       0.049700
     23 H4          -3.3090    -0.6600    -1.6840 hc         1 ARJ       0.100700
     24 H6          -3.6520     1.9770    -0.2000 h1         1 ARJ       0.020700
     25 H6A         -3.6530     1.7960    -1.9660 h1         1 ARJ       0.020700
     26 HO6         -5.7810     1.7290    -1.1230 ho         1 ARJ       0.449000
     27 H5          -1.0390     0.1470    -1.9940 hc         1 ARJ       0.061700
     28 H5A         -1.2750     1.4540    -0.8420 hc         1 ARJ       0.061700
     29 H1          -0.7230    -1.5050    -0.2000 h1         1 ARJ       0.115700
     30 H8           0.2630     0.8570     2.4600 h5         1 ARJ       0.061800
     31 HN6          4.8930     1.5060     1.3250 hn         1 ARJ       0.507500
     32 HN6A         5.9040     1.1570    -0.0350 hn         1 ARJ       0.507500
@<TRIPOS>BOND
     1     1    17 ar  
     2     1    18 ar  
     3     1    20 1   
     4     2     3 ar  
     5     2    14 1   
     6     2    17 ar  
     7     3     4 ar  
     8     3    16 1   
     9     4    18 ar  
    10     4    19 1   
    11     5     6 1   
    12     5    21 1   
    13     6     7 1   
    14     6    13 1   
    15     6    22 1   
    16     7     8 2   
    17     7     9 1   
    18     9    10 1   
    19     9    12 1   
    20     9    23 1   
    21    10    11 1   
    22    10    24 1   
    23    10    25 1   
    24    11    26 1   
    25    12    13 1   
    26    12    27 1   
    27    12    28 1   
    28    13    14 1   
    29    13    29 1   
    30    14    15 1   
    31    15    16 2   
    32    15    30 1   
    33    19    31 1   
    34    19    32 1   
@<TRIPOS>SUBSTRUCTURE
     1 ARJ         1 TEMP              0 ****  ****    0 ROOT
