@<TRIPOS>MOLECULE
ARK
   79    80     1     0     0
SMALL
No Charge or Current Charge


@<TRIPOS>ATOM
      1 OAA         15.0910    42.9120    39.3140 o          1 ARK      -0.570000
      2 CBH         14.4040    43.9230    39.3460 c          1 ARK       0.706000
      3 OAG         13.4590    44.1430    38.6040 o          1 ARK      -0.570000
      4 CAV         14.8140    45.0320    40.3230 c3         1 ARK      -0.169400
      5 CAX         15.8320    45.9980    39.6500 c3         1 ARK      -0.085400
      6 CBQ         16.3100    47.1780    40.5460 c3         1 ARK       0.049700
      7 CBJ         15.1790    48.1980    40.8490 c          1 ARK       0.693000
      8 OAI         15.0170    49.1090    40.0500 o          1 ARK      -0.456000
      9 OAC         14.5750    48.0890    41.9080 o          1 ARK      -0.456000
     10 NBE         16.9480    46.7080    41.7990 ns         1 ARK      -0.336900
     11 CBK         18.2080    46.1640    41.8710 c          1 ARK       0.594100
     12 OAD         18.9380    46.0410    40.9010 o          1 ARK      -0.615100
     13 N           18.5660    45.7730    43.1380 ns         1 ARK      -0.429900
     14 CA          19.8780    45.1850    43.5030 c3         1 ARK      -0.011300
     15 C           19.7400    44.3410    44.8040 c          1 ARK       0.705000
     16 OXT         19.1380    44.8330    45.7500 o          1 ARK      -0.649500
     17 O           20.1380    43.1840    44.7830 o          1 ARK      -0.649500
     18 CB          20.9720    46.2790    43.6150 c3         1 ARK      -0.064400
     19 CAP         22.3920    45.7210    43.8670 c3         1 ARK      -0.071400
     20 CAQ         23.4700    46.8270    43.9250 c3         1 ARK      -0.094400
     21 CAY         24.8900    46.2720    44.1760 c3         1 ARK       0.074600
     22 NBR         25.9160    47.3250    44.2360 na         1 ARK       0.133800
     23 CAO         26.2080    48.1410    45.2980 cc         1 ARK      -0.204000
     24 NBB         26.7070    47.5980    43.1600 nc         1 ARK      -0.198800
     25 NBA         27.4980    48.5740    43.5180 nd         1 ARK      -0.341000
     26 CBL         27.2150    48.9330    44.8210 cd         1 ARK       0.141300
     27 CAZ         27.9500    50.0420    45.5430 c3         1 ARK       0.145300
     28 OBG         27.4380    51.3380    45.1490 os         1 ARK      -0.433000
     29 CAU         26.0780    51.6010    45.5600 c3         1 ARK       0.117600
     30 CAT         25.6870    53.0490    45.1700 c3         1 ARK       0.155600
     31 OBF         26.4510    54.0420    45.9030 os         1 ARK      -0.441000
     32 CAS         26.2260    54.1470    47.3310 c3         1 ARK       0.144600
     33 CAR         27.3690    53.4290    48.0920 c3         1 ARK       0.018600
     34 NBC         28.6540    53.6570    47.4190 nu         1 ARK      -0.377700
     35 CBN         29.6630    52.7210    47.3300 cc         1 ARK       0.399300
     36 CAM         30.0110    51.9730    48.4970 cc         1 ARK      -0.442600
     37 CAL         30.9870    50.9890    48.4400 cd         1 ARK       0.005000
     38 CBM         31.6730    50.6790    47.1910 cd         1 ARK      -0.011000
     39 NBS         32.6600    49.6540    47.1750 nh         1 ARK       0.223300
     40 OAJ         33.2920    49.4050    45.9540 oh         1 ARK      -0.424300
     41 OAE         32.9010    49.0140    48.2390 o          1 ARK      -0.381000
     42 CAN         31.3290    51.3990    46.0430 cc         1 ARK      -0.558600
     43 CBO         30.3250    52.4450    46.0780 cc         1 ARK       0.117300
     44 NBT         29.9560    53.1210    44.9080 nh         1 ARK       0.331300
     45 OAK         29.7680    52.3300    43.7780 oh         1 ARK      -0.539000
     46 OAF         29.7030    54.3610    44.9560 o          1 ARK      -0.536000
     47 HAV1        13.9330    45.6300    40.5850 hc         1 ARK       0.071200
     48 HAV2        15.3230    44.5870    41.1860 hc         1 ARK       0.071200
     49 HAX1        16.7090    45.4220    39.3280 hc         1 ARK       0.099700
     50 HAX2        15.3890    46.4090    38.7330 hc         1 ARK       0.099700
     51 HBQ         17.0630    47.7460    39.9830 h1         1 ARK       0.132700
     52 HBE         16.4170    46.7800    42.6590 hn         1 ARK       0.323500
     53 H           17.8910    45.9100    43.8820 hn         1 ARK       0.350500
     54 HA          20.1670    44.4890    42.7050 h1         1 ARK       0.076700
     55 HB1C        20.9860    46.8650    42.6890 hc         1 ARK       0.047200
     56 HB2C        20.7060    46.9730    44.4230 hc         1 ARK       0.047200
     57 HAP1        22.4060    45.1620    44.8110 hc         1 ARK       0.058700
     58 HAP2        22.6460    45.0110    43.0700 hc         1 ARK       0.058700
     59 HAQ1        23.4670    47.3860    42.9810 hc         1 ARK       0.053200
     60 HAQ2        23.2170    47.5380    44.7210 hc         1 ARK       0.053200
     61 HAY1        24.9070    45.7240    45.1260 h1         1 ARK       0.072200
     62 HAY2        25.1550    45.5670    43.3780 h1         1 ARK       0.072200
     63 HAO         25.7030    48.1010    46.2530 h4         1 ARK       0.164000
     64 HAZ1        27.8520    49.8990    46.6270 h1         1 ARK       0.054700
     65 HAZ2        29.0170    49.9640    45.2990 h1         1 ARK       0.054700
     66 HAU1        25.3910    50.9150    45.0490 h1         1 ARK       0.027200
     67 HAU2        25.9480    51.4480    46.6380 h1         1 ARK       0.027200
     68 HAT1        25.8510    53.1720    44.0920 h1         1 ARK       0.063200
     69 HAT2        24.6130    53.1870    45.3510 h1         1 ARK       0.063200
     70 HAS1        26.2420    55.2060    47.6200 h1         1 ARK       0.057200
     71 HAS2        25.2510    53.7390    47.6290 h1         1 ARK       0.057200
     72 HAR1        27.4120    53.8100    49.1200 h1         1 ARK       0.060200
     73 HAR2        27.1610    52.3540    48.1470 h1         1 ARK       0.060200
     74 HBC         28.5880    54.2000    46.5550 hn         1 ARK       0.413000
     75 HAM         29.5040    52.1890    49.4310 ha         1 ARK       0.186000
     76 HAL         31.2330    50.4410    49.3480 ha         1 ARK       0.206000
     77 HAN         31.8090    51.2050    45.0870 ha         1 ARK       0.201000
     78 HAJ         32.6480    48.7580    45.6030 ho         1 ARK       0.491000
     79 HAK         28.8600    52.0250    44.0090 ho         1 ARK       0.487000
@<TRIPOS>BOND
     1     1     2 1   
     2     2     3 1   
     3     2     4 1   
     4     4     5 1   
     5     4    47 1   
     6     4    48 1   
     7     5     6 1   
     8     5    49 1   
     9     5    50 1   
    10     6     7 1   
    11     6    10 1   
    12     6    51 1   
    13     7     8 1   
    14     7     9 1   
    15    10    11 1   
    16    10    52 1   
    17    11    12 2   
    18    11    13 1   
    19    13    14 1   
    20    13    53 1   
    21    14    15 1   
    22    14    18 1   
    23    14    54 1   
    24    15    16 1   
    25    15    17 1   
    26    18    19 1   
    27    18    55 1   
    28    18    56 1   
    29    19    20 1   
    30    19    57 1   
    31    19    58 1   
    32    20    21 1   
    33    20    59 1   
    34    20    60 1   
    35    21    22 1   
    36    21    61 1   
    37    21    62 1   
    38    22    23 1   
    39    22    24 1   
    40    23    26 2   
    41    23    63 1   
    42    24    25 2   
    43    25    26 1   
    44    26    27 1   
    45    27    28 1   
    46    27    64 1   
    47    27    65 1   
    48    28    29 1   
    49    29    30 1   
    50    29    66 1   
    51    29    67 1   
    52    30    31 1   
    53    30    68 1   
    54    30    69 1   
    55    31    32 1   
    56    32    33 1   
    57    32    70 1   
    58    32    71 1   
    59    33    34 1   
    60    33    72 1   
    61    33    73 1   
    62    34    35 2   
    63    34    74 1   
    64    35    36 1   
    65    35    43 1   
    66    36    37 2   
    67    36    75 1   
    68    37    38 1   
    69    37    76 1   
    70    38    39 1   
    71    38    42 2   
    72    39    40 1   
    73    39    41 1   
    74    40    78 1   
    75    42    43 1   
    76    42    77 1   
    77    43    44 2   
    78    44    45 1   
    79    44    46 1   
    80    45    79 1   
@<TRIPOS>SUBSTRUCTURE
     1 ARK         1 TEMP              0 ****  ****    0 ROOT
