@<TRIPOS>MOLECULE
ARK
   79    80     1     0     0
SMALL
abcg2


@<TRIPOS>ATOM
      1 OAA         12.2430    47.2790    41.6420 o          1 ARK      -0.570000
      2 CBH         12.8270    46.7030    40.7000 c          1 ARK       0.706000
      3 OAG         12.2870    46.1420    39.7260 o          1 ARK      -0.570000
      4 CAV         14.3700    46.7240    40.7590 c3         1 ARK      -0.169400
      5 CAX         15.0840    45.8070    39.7740 c3         1 ARK      -0.085400
      6 CBQ         16.6140    45.8090    39.8810 c3         1 ARK       0.049700
      7 CBJ         17.1770    47.2350    39.6470 c          1 ARK       0.693000
      8 OAI         17.0440    47.6700    38.4840 o          1 ARK      -0.456000
      9 OAC         17.6830    47.8270    40.6180 o          1 ARK      -0.456000
     10 NBE         17.0120    45.2190    41.1420 ns         1 ARK      -0.336900
     11 CBK         18.3310    44.9800    41.4100 c          1 ARK       0.594100
     12 OAD         19.1810    44.8800    40.5250 o          1 ARK      -0.615100
     13 N           18.6130    44.8070    42.7230 ns         1 ARK      -0.429900
     14 CA          19.8930    44.3730    43.2290 c3         1 ARK      -0.011300
     15 C           19.6700    43.6020    44.5540 c          1 ARK       0.705000
     16 OXT         18.6240    43.8680    45.1820 o          1 ARK      -0.649500
     17 O           20.5640    42.8040    44.8910 o          1 ARK      -0.649500
     18 CB          20.8300    45.5760    43.4400 c3         1 ARK      -0.064400
     19 CAP         22.2820    45.2190    43.7240 c3         1 ARK      -0.071400
     20 CAQ         23.1650    46.4560    43.8390 c3         1 ARK      -0.094400
     21 CAY         24.6140    46.0680    44.0940 c3         1 ARK       0.074600
     22 NBR         25.4950    47.2180    44.1740 na         1 ARK       0.133800
     23 CAO         25.8650    47.9200    45.2560 cc         1 ARK      -0.204000
     24 NBB         26.0080    47.7470    43.0760 nc         1 ARK      -0.198800
     25 NBA         26.7100    48.7710    43.4150 nd         1 ARK      -0.341000
     26 CBL         26.6560    48.9240    44.7570 cd         1 ARK       0.141300
     27 CAZ         27.3540    50.0320    45.4680 c3         1 ARK       0.145300
     28 OBG         26.7080    51.2780    45.3250 os         1 ARK      -0.433000
     29 CAU         25.4790    51.3750    46.0000 c3         1 ARK       0.117600
     30 CAT         25.0170    52.8170    45.9670 c3         1 ARK       0.155600
     31 OBF         25.9670    53.7590    46.4200 os         1 ARK      -0.441000
     32 CAS         26.3000    53.7390    47.7830 c3         1 ARK       0.144600
     33 CAR         27.5040    52.8480    48.0910 c3         1 ARK       0.018600
     34 NBC         28.5010    53.0230    47.0460 nu         1 ARK      -0.377700
     35 CBN         29.7420    52.6290    47.0990 cc         1 ARK       0.399300
     36 CAM         30.2260    51.9350    48.2590 cc         1 ARK      -0.442600
     37 CAL         31.4920    51.4890    48.3570 cd         1 ARK       0.005000
     38 CBM         32.4030    51.6960    47.2820 cd         1 ARK      -0.011000
     39 NBS         33.7140    51.2360    47.4470 nh         1 ARK       0.223300
     40 OAJ         34.5390    51.1330    46.4380 oh         1 ARK      -0.424300
     41 OAE         34.1530    50.9520    48.5020 o          1 ARK      -0.381000
     42 CAN         32.0290    52.3850    46.1530 cc         1 ARK      -0.558600
     43 CBO         30.7180    52.8510    46.0480 cc         1 ARK       0.117300
     44 NBT         30.3750    53.5720    44.9210 nh         1 ARK       0.331300
     45 OAK         31.3670    53.8660    44.1280 oh         1 ARK      -0.539000
     46 OAF         29.2730    53.9260    44.6580 o          1 ARK      -0.536000
     47 HAV1        14.6870    47.7610    40.5950 hc         1 ARK       0.071200
     48 HAV2        14.6610    46.5020    41.7910 hc         1 ARK       0.071200
     49 HAX1        14.7290    44.7810    39.9020 hc         1 ARK       0.099700
     50 HAX2        14.8210    46.0950    38.7560 hc         1 ARK       0.099700
     51 HBQ         16.9890    45.1670    39.0790 h1         1 ARK       0.132700
     52 HBE         16.4560    45.5010    41.9340 hn         1 ARK       0.323500
     53 H           17.8790    44.8100    43.4160 hn         1 ARK       0.350500
     54 HA          20.3600    43.6980    42.5040 h1         1 ARK       0.076700
     55 HB1C        20.7900    46.1890    42.5350 hc         1 ARK       0.047200
     56 HB2C        20.4300    46.1970    44.2480 hc         1 ARK       0.047200
     57 HAP1        22.3540    44.6300    44.6390 hc         1 ARK       0.058700
     58 HAP2        22.6620    44.5810    42.9180 hc         1 ARK       0.058700
     59 HAQ1        23.1060    47.0470    42.9220 hc         1 ARK       0.053200
     60 HAQ2        22.8090    47.0930    44.6530 hc         1 ARK       0.053200
     61 HAY1        24.7080    45.5150    45.0290 h1         1 ARK       0.072200
     62 HAY2        24.9890    45.4290    43.2950 h1         1 ARK       0.072200
     63 HAO         25.5610    47.6610    46.2570 h4         1 ARK       0.164000
     64 HAZ1        27.4650    49.7710    46.5280 h1         1 ARK       0.054700
     65 HAZ2        28.3550    50.1630    45.0550 h1         1 ARK       0.054700
     66 HAU1        24.6970    50.7650    45.5280 h1         1 ARK       0.027200
     67 HAU2        25.5670    51.0120    47.0340 h1         1 ARK       0.027200
     68 HAT1        24.7880    53.1070    44.9400 h1         1 ARK       0.063200
     69 HAT2        24.0880    52.8890    46.5460 h1         1 ARK       0.063200
     70 HAS1        26.5470    54.7650    48.0590 h1         1 ARK       0.057200
     71 HAS2        25.4660    53.4170    48.4150 h1         1 ARK       0.057200
     72 HAR1        27.9120    53.1460    49.0570 h1         1 ARK       0.060200
     73 HAR2        27.2370    51.7910    48.1550 h1         1 ARK       0.060200
     74 HBC         28.1220    53.3940    46.1820 hn         1 ARK       0.413000
     75 HAM         29.5450    51.7380    49.0730 ha         1 ARK       0.186000
     76 HAL         31.7970    50.9510    49.2440 ha         1 ARK       0.206000
     77 HAN         32.7310    52.6020    45.3590 ha         1 ARK       0.201000
     78 HAJ         34.0690    51.0150    45.5890 ho         1 ARK       0.491000
     79 HAK         31.0090    54.3370    43.3430 ho         1 ARK       0.487000
@<TRIPOS>BOND
     1     1     2 1   
     2     2     3 1   
     3     2     4 1   
     4     4     5 1   
     5     4    47 1   
     6     4    48 1   
     7     5     6 1   
     8     5    49 1   
     9     5    50 1   
    10     6     7 1   
    11     6    10 1   
    12     6    51 1   
    13     7     8 1   
    14     7     9 1   
    15    10    11 1   
    16    10    52 1   
    17    11    12 2   
    18    11    13 1   
    19    13    14 1   
    20    13    53 1   
    21    14    15 1   
    22    14    18 1   
    23    14    54 1   
    24    15    16 1   
    25    15    17 1   
    26    18    19 1   
    27    18    55 1   
    28    18    56 1   
    29    19    20 1   
    30    19    57 1   
    31    19    58 1   
    32    20    21 1   
    33    20    59 1   
    34    20    60 1   
    35    21    22 1   
    36    21    61 1   
    37    21    62 1   
    38    22    23 1   
    39    22    24 1   
    40    23    26 2   
    41    23    63 1   
    42    24    25 2   
    43    25    26 1   
    44    26    27 1   
    45    27    28 1   
    46    27    64 1   
    47    27    65 1   
    48    28    29 1   
    49    29    30 1   
    50    29    66 1   
    51    29    67 1   
    52    30    31 1   
    53    30    68 1   
    54    30    69 1   
    55    31    32 1   
    56    32    33 1   
    57    32    70 1   
    58    32    71 1   
    59    33    34 1   
    60    33    72 1   
    61    33    73 1   
    62    34    35 2   
    63    34    74 1   
    64    35    36 1   
    65    35    43 1   
    66    36    37 2   
    67    36    75 1   
    68    37    38 1   
    69    37    76 1   
    70    38    39 1   
    71    38    42 2   
    72    39    40 1   
    73    39    41 1   
    74    40    78 1   
    75    42    43 1   
    76    42    77 1   
    77    43    44 2   
    78    44    45 1   
    79    44    46 1   
    80    45    79 1   
@<TRIPOS>SUBSTRUCTURE
     1 ARK         1 TEMP              0 ****  ****    0 ROOT
