@<TRIPOS>MOLECULE
ARL
   56    56     1     0     0
SMALL
No Charge or Current Charge


@<TRIPOS>ATOM
      1 C16          1.3480    -0.6850     5.5650 c3         1 ARL      -0.038900
      2 C9           0.0250    -0.0430     5.1460 ce         1 ARL      -0.156200
      3 C13         -0.1850     0.1790     3.6990 ce         1 ARL      -0.090000
      4 C8           0.4470    -0.4480     2.6670 cf         1 ARL      -0.279000
      5 C44          0.1760    -0.1800     1.2560 cf         1 ARL      -0.113000
      6 C42          0.7560    -0.7930     0.1830 ce         1 ARL      -0.123400
      7 C7           1.7820    -1.9070     0.3560 c3         1 ARL      -0.036900
      8 C3           0.4050    -0.4530    -1.2280 ca         1 ARL      -0.016800
      9 C4           1.4160    -0.2150    -2.1750 ca         1 ARL      -0.111500
     10 C5           1.0990     0.1110    -3.5140 ca         1 ARL      -0.069800
     11 C6          -0.2670     0.1950    -3.8690 ca         1 ARL      -0.123000
     12 C1          -1.3060    -0.0340    -2.9380 ca         1 ARL      -0.069800
     13 C2          -0.9440    -0.3600    -1.6100 ca         1 ARL      -0.111500
     14 C10         -2.7850     0.0770    -3.4010 c3         1 ARL       0.003300
     15 C11         -3.8050    -0.2000    -2.2610 c3         1 ARL      -0.081100
     16 C15         -3.0480     1.5120    -3.9360 c3         1 ARL      -0.081100
     17 C19         -3.0460    -0.9520    -4.5350 c3         1 ARL      -0.081100
     18 C23          2.1850     0.3790    -4.5920 c3         1 ARL       0.003300
     19 C24          3.6350     0.2450    -4.0460 c3         1 ARL      -0.081100
     20 C28          2.0190    -0.6390    -5.7530 c3         1 ARL      -0.081100
     21 C32          2.0160     1.8210    -5.1440 c3         1 ARL      -0.081100
     22 C14         -0.9320     0.3890     6.0340 cf         1 ARL      -0.189200
     23 C12         -0.9730     0.2850     7.5310 c          1 ARL       0.695200
     24 O2          -1.9380     0.7840     8.0880 o          1 ARL      -0.719500
     25 O3          -0.0910    -0.3010     8.1400 o          1 ARL      -0.719500
     26 H161         1.7750    -0.1990     6.4480 hc         1 ARL       0.036033
     27 H162         1.2190    -1.7500     5.7920 hc         1 ARL       0.036033
     28 H163         2.1220    -0.6000     4.7940 hc         1 ARL       0.036033
     29 H13         -0.9530     0.9110     3.4420 ha         1 ARL       0.152000
     30 H8           1.1920    -1.2100     2.8920 ha         1 ARL       0.175000
     31 H44         -0.5580     0.6020     1.0480 ha         1 ARL       0.159000
     32 H71          1.4260    -2.6730     1.0570 hc         1 ARL       0.032367
     33 H72          1.9950    -2.4220    -0.5880 hc         1 ARL       0.032367
     34 H73          2.7300    -1.5140     0.7410 hc         1 ARL       0.032367
     35 H4           2.4460    -0.2830    -1.8430 ha         1 ARL       0.114000
     36 H6          -0.5270     0.4450    -4.8920 ha         1 ARL       0.100000
     37 H2          -1.6970    -0.5540    -0.8540 ha         1 ARL       0.114000
     38 H111        -4.8350    -0.1100    -2.6280 hc         1 ARL       0.032589
     39 H112        -3.6870    -1.2150    -1.8620 hc         1 ARL       0.032589
     40 H113        -3.6850     0.5160    -1.4390 hc         1 ARL       0.032589
     41 H151        -2.8310     2.2580    -3.1620 hc         1 ARL       0.032589
     42 H152        -2.4260     1.7400    -4.8090 hc         1 ARL       0.032589
     43 H153        -4.0960     1.6320    -4.2380 hc         1 ARL       0.032589
     44 H191        -2.8280    -1.9700    -4.1900 hc         1 ARL       0.032589
     45 H192        -4.0930    -0.9210    -4.8590 hc         1 ARL       0.032589
     46 H193        -2.4230    -0.7530    -5.4150 hc         1 ARL       0.032589
     47 H241         4.3710     0.4390    -4.8370 hc         1 ARL       0.032589
     48 H242         3.8230     0.9650    -3.2400 hc         1 ARL       0.032589
     49 H243         3.8220    -0.7650    -3.6630 hc         1 ARL       0.032589
     50 H281         2.0960    -1.6670    -5.3780 hc         1 ARL       0.032589
     51 H282         1.0490    -0.5340    -6.2510 hc         1 ARL       0.032589
     52 H283         2.7960    -0.4980    -6.5140 hc         1 ARL       0.032589
     53 H321         2.0910     2.5560    -4.3330 hc         1 ARL       0.032589
     54 H322         2.7920     2.0520    -5.8830 hc         1 ARL       0.032589
     55 H323         1.0450     1.9570    -5.6330 hc         1 ARL       0.032589
     56 H14         -1.8140     0.8710     5.6170 ha         1 ARL       0.143000
@<TRIPOS>BOND
     1     1     2 1   
     2     1    26 1   
     3     1    27 1   
     4     1    28 1   
     5     2     3 1   
     6     2    22 2   
     7     3     4 2   
     8     3    29 1   
     9     4     5 1   
    10     4    30 1   
    11     5     6 2   
    12     5    31 1   
    13     6     7 1   
    14     6     8 1   
    15     7    32 1   
    16     7    33 1   
    17     7    34 1   
    18     8     9 ar  
    19     8    13 ar  
    20     9    10 ar  
    21     9    35 1   
    22    10    11 ar  
    23    10    18 1   
    24    11    12 ar  
    25    11    36 1   
    26    12    13 ar  
    27    12    14 1   
    28    13    37 1   
    29    14    15 1   
    30    14    16 1   
    31    14    17 1   
    32    15    38 1   
    33    15    39 1   
    34    15    40 1   
    35    16    41 1   
    36    16    42 1   
    37    16    43 1   
    38    17    44 1   
    39    17    45 1   
    40    17    46 1   
    41    18    19 1   
    42    18    20 1   
    43    18    21 1   
    44    19    47 1   
    45    19    48 1   
    46    19    49 1   
    47    20    50 1   
    48    20    51 1   
    49    20    52 1   
    50    21    53 1   
    51    21    54 1   
    52    21    55 1   
    53    22    23 1   
    54    22    56 1   
    55    23    24 1   
    56    23    25 1   
@<TRIPOS>SUBSTRUCTURE
     1 ARL         1 TEMP              0 ****  ****    0 ROOT
