@<TRIPOS>MOLECULE
ARL
   56    56     1     0     0
SMALL
bcc


@<TRIPOS>ATOM
      1 C16          1.0560    -0.9460     5.4870 c3         1 ARL      -0.038900
      2 C9          -0.1800    -0.2350     5.0210 ce         1 ARL      -0.156200
      3 C13         -0.3590    -0.0700     3.5840 ce         1 ARL      -0.040000
      4 C8           0.4800    -0.5030     2.6230 cf         1 ARL      -0.229000
      5 C44          0.2090    -0.2920     1.2210 cf         1 ARL      -0.063000
      6 C42          0.9740    -0.6670     0.1740 ce         1 ARL      -0.123400
      7 C7           2.3030    -1.3480     0.3380 c3         1 ARL      -0.036900
      8 C3           0.5370    -0.3760    -1.2080 ca         1 ARL      -0.016800
      9 C4           1.4810    -0.2110    -2.2240 ca         1 ARL      -0.129500
     10 C5           1.1050     0.0840    -3.5310 ca         1 ARL      -0.069800
     11 C6          -0.2550     0.2030    -3.8060 ca         1 ARL      -0.141000
     12 C1          -1.2330     0.0280    -2.8280 ca         1 ARL      -0.069800
     13 C2          -0.8170    -0.2680    -1.5360 ca         1 ARL      -0.129500
     14 C10         -2.7050     0.1630    -3.2090 c3         1 ARL       0.003300
     15 C11         -3.6410    -0.0770    -2.0230 c3         1 ARL      -0.081100
     16 C15         -2.9600     1.5830    -3.7320 c3         1 ARL      -0.081100
     17 C19         -3.0440    -0.8560    -4.3050 c3         1 ARL      -0.081100
     18 C23          2.1190     0.2670    -4.6570 c3         1 ARL       0.003300
     19 C24          3.5630     0.1450    -4.1660 c3         1 ARL      -0.081100
     20 C28          1.8840    -0.8120    -5.7230 c3         1 ARL      -0.081100
     21 C32          1.9440     1.6560    -5.2860 c3         1 ARL      -0.081100
     22 C14         -1.1330     0.2800     5.8250 cf         1 ARL      -0.139200
     23 C12         -1.2360     0.3020     7.3300 c          1 ARL       0.905800
     24 O2          -2.1000     1.0900     7.7720 o          1 ARL      -0.824800
     25 O3          -0.4950    -0.4330     8.0160 o          1 ARL      -0.824800
     26 H161         1.1120    -0.9710     6.5690 hc         1 ARL       0.036033
     27 H162         1.0740    -1.9740     5.1160 hc         1 ARL       0.036033
     28 H163         1.9510    -0.4580     5.0960 hc         1 ARL       0.036033
     29 H13         -1.2620     0.4510     3.2750 ha         1 ARL       0.102000
     30 H8           1.3880    -1.0230     2.9060 ha         1 ARL       0.125000
     31 H44         -0.7100     0.2480     1.0150 ha         1 ARL       0.109000
     32 H71          2.4440    -1.7530     1.3360 hc         1 ARL       0.032367
     33 H72          2.4150    -2.1690    -0.3720 hc         1 ARL       0.032367
     34 H73          3.1280    -0.6560     0.1550 hc         1 ARL       0.032367
     35 H4           2.5300    -0.3040    -1.9830 ha         1 ARL       0.132000
     36 H6          -0.5670     0.4300    -4.8190 ha         1 ARL       0.118000
     37 H2          -1.5540    -0.4430    -0.7650 ha         1 ARL       0.132000
     38 H111        -4.6770     0.0450    -2.3460 hc         1 ARL       0.032589
     39 H112        -3.5430    -1.0860    -1.6170 hc         1 ARL       0.032589
     40 H113        -3.4650     0.6340    -1.2140 hc         1 ARL       0.032589
     41 H151        -2.7530     2.3270    -2.9610 hc         1 ARL       0.032589
     42 H152        -2.3420     1.8230    -4.5990 hc         1 ARL       0.032589
     43 H153        -4.0040     1.6940    -4.0310 hc         1 ARL       0.032589
     44 H191        -2.8730    -1.8770    -3.9590 hc         1 ARL       0.032589
     45 H192        -4.0950    -0.7710    -4.5920 hc         1 ARL       0.032589
     46 H193        -2.4460    -0.7050    -5.2050 hc         1 ARL       0.032589
     47 H241         4.2470     0.2910    -5.0030 hc         1 ARL       0.032589
     48 H242         3.8050     0.8960    -3.4110 hc         1 ARL       0.032589
     49 H243         3.7710    -0.8400    -3.7440 hc         1 ARL       0.032589
     50 H281         2.0150    -1.8120    -5.3040 hc         1 ARL       0.032589
     51 H282         0.8790    -0.7580    -6.1440 hc         1 ARL       0.032589
     52 H283         2.5930    -0.6980    -6.5450 hc         1 ARL       0.032589
     53 H321         2.0850     2.4440    -4.5440 hc         1 ARL       0.032589
     54 H322         2.6810     1.8060    -6.0790 hc         1 ARL       0.032589
     55 H323         0.9570     1.7880    -5.7290 hc         1 ARL       0.032589
     56 H14         -1.9560     0.7860     5.3260 ha         1 ARL       0.093000
@<TRIPOS>BOND
     1     1     2 1   
     2     1    26 1   
     3     1    27 1   
     4     1    28 1   
     5     2     3 1   
     6     2    22 2   
     7     3     4 2   
     8     3    29 1   
     9     4     5 1   
    10     4    30 1   
    11     5     6 2   
    12     5    31 1   
    13     6     7 1   
    14     6     8 1   
    15     7    32 1   
    16     7    33 1   
    17     7    34 1   
    18     8     9 ar  
    19     8    13 ar  
    20     9    10 ar  
    21     9    35 1   
    22    10    11 ar  
    23    10    18 1   
    24    11    12 ar  
    25    11    36 1   
    26    12    13 ar  
    27    12    14 1   
    28    13    37 1   
    29    14    15 1   
    30    14    16 1   
    31    14    17 1   
    32    15    38 1   
    33    15    39 1   
    34    15    40 1   
    35    16    41 1   
    36    16    42 1   
    37    16    43 1   
    38    17    44 1   
    39    17    45 1   
    40    17    46 1   
    41    18    19 1   
    42    18    20 1   
    43    18    21 1   
    44    19    47 1   
    45    19    48 1   
    46    19    49 1   
    47    20    50 1   
    48    20    51 1   
    49    20    52 1   
    50    21    53 1   
    51    21    54 1   
    52    21    55 1   
    53    22    23 1   
    54    22    56 1   
    55    23    24 1   
    56    23    25 1   
@<TRIPOS>SUBSTRUCTURE
     1 ARL         1 TEMP              0 ****  ****    0 ROOT
