@<TRIPOS>MOLECULE
ARM
   28    27     1     0     0
SMALL
bcc


@<TRIPOS>ATOM
      1 N           36.1970    12.7490   144.7330 n8         1 ARM      -0.890800
      2 CA          35.0190    12.2790   145.4380 c3         1 ARM       0.059500
      3 CB          33.9280    11.8510   144.4460 c3         1 ARM      -0.072400
      4 CG          33.3560    13.0080   143.6360 c3         1 ARM      -0.092400
      5 CD          32.1990    12.5500   142.7610 c3         1 ARM       0.224800
      6 NE          31.6690    13.6580   142.0010 nu         1 ARM      -0.849200
      7 CZ          30.5010    13.5340   141.2980 c2         1 ARM       0.797100
      8 NH1         29.7580    12.4980   141.4510 n2         1 ARM      -0.895100
      9 NH2         30.1860    14.6350   140.5300 nv         1 ARM      -0.960800
     10 C           35.3470    11.0660   146.2960 c          1 ARM       0.575100
     11 O           34.7230    10.8540   147.3120 o          1 ARM      -0.523100
     12 CM          36.4260    10.1400   145.8130 c3         1 ARM      -0.186100
     13 H           36.8600    13.1430   145.3900 hn         1 ARM       0.345300
     14 H2          35.9490    13.5080   144.1120 hn         1 ARM       0.345300
     15 HA          34.5780    13.0310   146.1090 h1         1 ARM       0.045700
     16 HB2         34.3340    11.0880   143.7730 hc         1 ARM       0.058700
     17 HB3         33.1150    11.3830   145.0070 hc         1 ARM       0.058700
     18 HG2         33.0070    13.7940   144.3120 hc         1 ARM       0.042200
     19 HG3         34.1290    13.4540   143.0020 hc         1 ARM       0.042200
     20 HD2         32.5300    11.7290   142.1100 h1         1 ARM       0.053700
     21 HD3         31.4040    12.1450   143.3880 h1         1 ARM       0.053700
     22 HE          32.3640    14.2760   141.6100 hn         1 ARM       0.405800
     23 HH1         28.9000    12.5950   140.9200 hn         1 ARM       0.379400
     24 HH21        29.5330    14.4640   139.7830 hn         1 ARM       0.397800
     25 HH22        30.9420    15.2370   140.2420 hn         1 ARM       0.397800
     26 HM1         36.3980     9.1990   146.3580 hc         1 ARM       0.063367
     27 HM2         36.3380     9.9520   144.7430 hc         1 ARM       0.063367
     28 HM3         37.4040    10.6010   145.9640 hc         1 ARM       0.063367
@<TRIPOS>BOND
     1     1     2 1   
     2     1    13 1   
     3     1    14 1   
     4     2     3 1   
     5     2    10 1   
     6     2    15 1   
     7     3     4 1   
     8     3    16 1   
     9     3    17 1   
    10     4     5 1   
    11     4    18 1   
    12     4    19 1   
    13     5     6 1   
    14     5    20 1   
    15     5    21 1   
    16     6     7 1   
    17     6    22 1   
    18     7     8 2   
    19     7     9 1   
    20     8    23 1   
    21     9    24 1   
    22     9    25 1   
    23    10    11 2   
    24    10    12 1   
    25    12    26 1   
    26    12    27 1   
    27    12    28 1   
@<TRIPOS>SUBSTRUCTURE
     1 ARM         1 TEMP              0 ****  ****    0 ROOT
