@<TRIPOS>MOLECULE
ARM
   28    27     1     0     0
SMALL
No Charge or Current Charge


@<TRIPOS>ATOM
      1 N           36.2920    12.9920   144.6360 n8         1 ARM      -0.890800
      2 CA          35.1690    12.3580   145.3980 c3         1 ARM       0.059500
      3 CB          34.0670    11.8570   144.4240 c3         1 ARM      -0.072400
      4 CG          33.3450    12.9860   143.6450 c3         1 ARM      -0.092400
      5 CD          32.2210    12.4570   142.7300 c3         1 ARM       0.224800
      6 NE          31.5730    13.5670   142.0200 nu         1 ARM      -0.849200
      7 CZ          30.5620    13.4190   141.1610 c2         1 ARM       0.797100
      8 NH1         30.0610    12.3190   140.8420 n2         1 ARM      -0.895100
      9 NH2         30.2010    14.6170   140.7400 nv         1 ARM      -0.960800
     10 C           35.6130    11.2490   146.4190 c          1 ARM       0.575100
     11 O           35.6460    11.4600   147.6270 o          1 ARM      -0.523100
     12 CM          36.0370     9.8920   145.8480 c3         1 ARM      -0.186100
     13 H           36.9190    13.4800   145.2870 hn         1 ARM       0.345300
     14 H2          35.9200    13.7370   144.0380 hn         1 ARM       0.345300
     15 HA          34.7170    13.1510   146.0110 h1         1 ARM       0.045700
     16 HB2         34.5020    11.1460   143.7100 hc         1 ARM       0.058700
     17 HB3         33.3160    11.3030   145.0020 hc         1 ARM       0.058700
     18 HG2         32.9210    13.7010   144.3600 hc         1 ARM       0.042200
     19 HG3         34.0720    13.5320   143.0310 hc         1 ARM       0.042200
     20 HD2         32.6470    11.7460   142.0080 h1         1 ARM       0.053700
     21 HD3         31.4820    11.9180   143.3400 h1         1 ARM       0.053700
     22 HE          31.5900    14.4700   142.4740 hn         1 ARM       0.405800
     23 HH1         29.2930    12.5070   140.1890 hn         1 ARM       0.379400
     24 HH21        29.6080    14.5980   139.9220 hn         1 ARM       0.397800
     25 HH22        30.9760    15.2610   140.6820 hn         1 ARM       0.397800
     26 HM1         36.5140     9.2520   146.5990 hc         1 ARM       0.063367
     27 HM2         35.1560     9.3960   145.4260 hc         1 ARM       0.063367
     28 HM3         36.6710    10.0460   144.9680 hc         1 ARM       0.063367
@<TRIPOS>BOND
     1     1     2 1   
     2     1    13 1   
     3     1    14 1   
     4     2     3 1   
     5     2    10 1   
     6     2    15 1   
     7     3     4 1   
     8     3    16 1   
     9     3    17 1   
    10     4     5 1   
    11     4    18 1   
    12     4    19 1   
    13     5     6 1   
    14     5    20 1   
    15     5    21 1   
    16     6     7 1   
    17     6    22 1   
    18     7     8 2   
    19     7     9 1   
    20     8    23 1   
    21     9    24 1   
    22     9    25 1   
    23    10    11 2   
    24    10    12 1   
    25    12    26 1   
    26    12    27 1   
    27    12    28 1   
@<TRIPOS>SUBSTRUCTURE
     1 ARM         1 TEMP              0 ****  ****    0 ROOT
