@<TRIPOS>MOLECULE
ARN
   16    15     1     0     0
SMALL
bcc


@<TRIPOS>ATOM
      1 N           -0.1070    -0.3910     3.4850 n2         1 ARN      -0.742100
      2 C1          -0.1490     0.3690     2.4750 c2         1 ARN       0.418200
      3 C2           0.6490     0.1070     1.2410 c3         1 ARN      -0.137700
      4 C3          -0.2400    -0.0060     0.0040 c3         1 ARN      -0.064400
      5 CA           0.5880    -0.1790    -1.2690 c3         1 ARN      -0.205400
      6 C           -0.2790    -0.4250    -2.4630 c          1 ARN       0.574900
      7 O           -0.2050     0.1640    -3.5130 o          1 ARN      -0.511100
      8 HN1         -0.7180    -0.0400     4.2170 hn         1 ARN       0.375400
      9 H11         -0.7730     1.2680     2.4340 h4         1 ARN      -0.044200
     10 H21          1.3490     0.9380     1.1020 hc         1 ARN       0.062700
     11 H22          1.2400    -0.8020     1.3740 hc         1 ARN       0.062700
     12 H31         -0.9210    -0.8550     0.1200 hc         1 ARN       0.046200
     13 H32         -0.8670     0.8860    -0.0840 hc         1 ARN       0.046200
     14 HCA1         1.2360     0.6820    -1.4420 hc         1 ARN       0.069200
     15 HCA2         1.2300    -1.0610    -1.1580 hc         1 ARN       0.069200
     16 HC1         -1.0260    -1.2270    -2.3190 h4         1 ARN      -0.018800
@<TRIPOS>BOND
     1     1     2 2   
     2     1     8 1   
     3     2     3 1   
     4     2     9 1   
     5     3     4 1   
     6     3    10 1   
     7     3    11 1   
     8     4     5 1   
     9     4    12 1   
    10     4    13 1   
    11     5     6 1   
    12     5    14 1   
    13     5    15 1   
    14     6     7 2   
    15     6    16 1   
@<TRIPOS>SUBSTRUCTURE
     1 ARN         1 TEMP              0 ****  ****    0 ROOT
