@<TRIPOS>MOLECULE
ARN
   16    15     1     0     0
SMALL
No Charge or Current Charge


@<TRIPOS>ATOM
      1 N           -0.4250    -0.4700     3.3440 n2         1 ARN      -0.742100
      2 C1          -0.0940     0.4520     2.5140 c2         1 ARN       0.418200
      3 C2           0.6950     0.1760     1.2530 c3         1 ARN      -0.137700
      4 C3          -0.2050    -0.0130     0.0110 c3         1 ARN      -0.064400
      5 CA           0.6010    -0.2780    -1.2830 c3         1 ARN      -0.205400
      6 C           -0.3190    -0.4810    -2.4900 c          1 ARN       0.574900
      7 O           -0.7870     0.4470    -3.1400 o          1 ARN      -0.511100
      8 HN1         -0.9560    -0.0470     4.1200 hn         1 ARN       0.375400
      9 H11         -0.3840     1.4820     2.7040 h4         1 ARN      -0.044200
     10 H21          1.3850     1.0090     1.0740 hc         1 ARN       0.062700
     11 H22          1.3160    -0.7180     1.3900 hc         1 ARN       0.062700
     12 H31         -0.8940    -0.8490     0.1890 hc         1 ARN       0.046200
     13 H32         -0.8230     0.8850    -0.1250 hc         1 ARN       0.046200
     14 HCA1         1.2670     0.5710    -1.4750 hc         1 ARN       0.069200
     15 HCA2         1.1770    -1.1990    -1.1320 hc         1 ARN       0.069200
     16 HC1         -0.5470    -1.5390    -2.7500 h4         1 ARN      -0.018800
@<TRIPOS>BOND
     1     1     2 2   
     2     1     8 1   
     3     2     3 1   
     4     2     9 1   
     5     3     4 1   
     6     3    10 1   
     7     3    11 1   
     8     4     5 1   
     9     4    12 1   
    10     4    13 1   
    11     5     6 1   
    12     5    14 1   
    13     5    15 1   
    14     6     7 2   
    15     6    16 1   
@<TRIPOS>SUBSTRUCTURE
     1 ARN         1 TEMP              0 ****  ****    0 ROOT
