@<TRIPOS>MOLECULE
ARO
   27    26     1     0     0
SMALL
bcc


@<TRIPOS>ATOM
      1 N           38.5160    70.5490    46.3710 n8         1 ARO      -0.871800
      2 CA          39.4030    71.6900    46.2150 c3         1 ARO       0.024500
      3 C           39.1380    72.4160    44.8700 c          1 ARO       0.930600
      4 O           39.5590    73.5880    44.7920 o          1 ARO      -0.818300
      5 CB          40.9070    71.3670    46.3030 c3         1 ARO      -0.099400
      6 CG          41.4240    71.0700    47.7020 c3         1 ARO       0.129100
      7 OH          40.8190    69.9000    48.2110 oh         1 ARO      -0.570800
      8 CD          42.9460    70.9030    47.6660 c3         1 ARO      -0.025700
      9 NE          43.5270    70.5970    48.9600 nu         1 ARO      -0.398100
     10 CZ          43.9530    71.4820    49.8550 cz         1 ARO       0.522300
     11 NH1         43.8220    72.7850    49.6480 nv         1 ARO      -0.517200
     12 NH2         44.5290    71.0550    50.9730 nv         1 ARO      -0.517200
     13 OXT         38.5650    71.7660    43.9730 o          1 ARO      -0.818300
     14 H           38.8910    69.9180    47.0650 hn         1 ARO       0.335300
     15 H2          38.4940    70.0500    45.4900 hn         1 ARO       0.335300
     16 HA          39.1850    72.4120    47.0130 h1         1 ARO       0.039700
     17 HB2         41.1420    70.5310    45.6340 hc         1 ARO       0.058200
     18 HB3         41.4720    72.2280    45.9380 hc         1 ARO       0.058200
     19 HG          41.1780    71.9320    48.3410 h1         1 ARO       0.027700
     20 HH          40.9140    69.8910    49.1680 ho         1 ARO       0.383000
     21 HD2         43.2020    70.0750    47.0040 h1         1 ARO       0.087200
     22 HD3         43.4220    71.7900    47.2430 h1         1 ARO       0.087200
     23 HE          43.6060    69.6210    49.2030 hn         1 ARO       0.315700
     24 HH11        44.1750    73.4500    50.3160 hn         1 ARO       0.325950
     25 HH12        43.2850    73.1590    48.8850 hn         1 ARO       0.325950
     26 HH21        44.7590    70.0850    51.1090 hn         1 ARO       0.325950
     27 HH22        44.8490    71.7020    51.6740 hn         1 ARO       0.325950
@<TRIPOS>BOND
     1     1     2 1   
     2     1    14 1   
     3     1    15 1   
     4     2     3 1   
     5     2     5 1   
     6     2    16 1   
     7     3     4 1   
     8     3    13 1   
     9     5     6 1   
    10     5    17 1   
    11     5    18 1   
    12     6     7 1   
    13     6     8 1   
    14     6    19 1   
    15     7    20 1   
    16     8     9 1   
    17     8    21 1   
    18     8    22 1   
    19     9    10 2   
    20     9    23 1   
    21    10    11 1   
    22    10    12 1   
    23    11    24 1   
    24    11    25 1   
    25    12    26 1   
    26    12    27 1   
@<TRIPOS>SUBSTRUCTURE
     1 ARO         1 TEMP              0 ****  ****    0 ROOT
