@<TRIPOS>MOLECULE
ARO
   27    26     1     0     0
SMALL
No Charge or Current Charge


@<TRIPOS>ATOM
      1 N           38.5070    70.6940    46.6270 n8         1 ARO      -0.871800
      2 CA          39.4240    71.8050    46.1840 c3         1 ARO       0.024500
      3 C           39.0860    72.5110    44.7970 c          1 ARO       0.930600
      4 O           38.8210    73.7100    44.7960 o          1 ARO      -0.818300
      5 CB          40.9040    71.3220    46.2170 c3         1 ARO      -0.099400
      6 CG          41.4870    71.0430    47.6290 c3         1 ARO       0.129100
      7 OH          40.8580    69.8930    48.2080 oh         1 ARO      -0.570800
      8 CD          43.0180    70.8060    47.5850 c3         1 ARO      -0.025700
      9 NE          43.5900    70.5680    48.9300 nu         1 ARO      -0.398100
     10 CZ          43.8990    71.4600    49.8710 cz         1 ARO       0.522300
     11 NH1         43.7160    72.7560    49.6860 nv         1 ARO      -0.517200
     12 NH2         44.4010    71.0530    51.0220 nv         1 ARO      -0.517200
     13 OXT         39.0330    71.8240    43.7810 o          1 ARO      -0.818300
     14 H           38.9810    70.1980    47.3920 hn         1 ARO       0.335300
     15 H2          38.4530    69.9960    45.8780 hn         1 ARO       0.335300
     16 HA          39.3380    72.5940    46.9440 h1         1 ARO       0.039700
     17 HB2         41.0180    70.4320    45.5850 hc         1 ARO       0.058200
     18 HB3         41.5180    72.1040    45.7530 hc         1 ARO       0.058200
     19 HG          41.2950    71.9230    48.2570 h1         1 ARO       0.027700
     20 HH          41.2640    69.7630    49.0900 ho         1 ARO       0.383000
     21 HD2         43.2230    69.9390    46.9410 h1         1 ARO       0.087200
     22 HD3         43.5060    71.6710    47.1180 h1         1 ARO       0.087200
     23 HE          43.8340    69.6030    49.1300 hn         1 ARO       0.315700
     24 HH11        43.9460    73.4410    50.3930 hn         1 ARO       0.325950
     25 HH12        43.3510    73.1260    48.8200 hn         1 ARO       0.325950
     26 HH21        44.5620    70.0770    51.2280 hn         1 ARO       0.325950
     27 HH22        44.6500    71.7000    51.7580 hn         1 ARO       0.325950
@<TRIPOS>BOND
     1     1     2 1   
     2     1    14 1   
     3     1    15 1   
     4     2     3 1   
     5     2     5 1   
     6     2    16 1   
     7     3     4 1   
     8     3    13 1   
     9     5     6 1   
    10     5    17 1   
    11     5    18 1   
    12     6     7 1   
    13     6     8 1   
    14     6    19 1   
    15     7    20 1   
    16     8     9 1   
    17     8    21 1   
    18     8    22 1   
    19     9    10 2   
    20     9    23 1   
    21    10    11 1   
    22    10    12 1   
    23    11    24 1   
    24    11    25 1   
    25    12    26 1   
    26    12    27 1   
@<TRIPOS>SUBSTRUCTURE
     1 ARO         1 TEMP              0 ****  ****    0 ROOT
