@<TRIPOS>MOLECULE
ARP
   25    26     1     0     0
SMALL
No Charge or Current Charge


@<TRIPOS>ATOM
      1 C7          -0.1250    -0.8340     2.0450 c3         1 ARP       0.048600
      2 C8          -0.3030     0.4600     2.8790 c3         1 ARP       0.145300
      3 O1           0.9750     1.0550     3.1510 oh         1 ARP      -0.646000
      4 C9          -1.0190     0.1980     4.2180 c3         1 ARP      -0.128100
      5 C4          -0.3060    -0.3480    -0.4250 ca         1 ARP       0.121500
      6 C3           0.5940    -0.1410    -1.4410 ca         1 ARP      -0.096600
      7 C2           0.0840     0.1370    -2.7280 ca         1 ARP       0.450900
      8 N2          -1.2360     0.2040    -2.9580 nb         1 ARP      -0.303000
      9 C1          -2.0370    -0.0150    -1.8870 ca         1 ARP       0.181900
     10 N5           0.8890     0.3620    -3.8020 nv         1 ARP      -1.063900
     11 N4           0.4330    -0.5960     0.7010 na         1 ARP      -0.271300
     12 N3           1.9190    -0.2340    -1.0150 nc         1 ARP      -0.553100
     13 C6           1.7760    -0.5040     0.2980 cd         1 ARP       0.413700
     14 N1          -1.6390    -0.2900    -0.6230 nb         1 ARP      -0.226000
     15 H72          0.5310    -1.5320     2.5830 h1         1 ARP       0.068700
     16 H71         -1.1010    -1.3240     1.9340 h1         1 ARP       0.068700
     17 H8          -0.9230     1.1530     2.2920 h1         1 ARP       0.095700
     18 H1           1.3980     0.5260     3.8620 ho         1 ARP       0.435000
     19 H93         -1.1400     1.1320     4.7800 hc         1 ARP       0.046700
     20 H92         -2.0170    -0.2210     4.0420 hc         1 ARP       0.046700
     21 H91         -0.4550    -0.5090     4.8380 hc         1 ARP       0.046700
     22 H52          0.4880     0.8400    -4.6050 hn         1 ARP       0.505500
     23 H51          1.8730     0.5360    -3.6120 hn         1 ARP       0.505500
     24 H6           2.5830    -0.6450     1.0070 h5         1 ARP       0.062800
     25 H1C1        -3.1100     0.0360    -2.0610 h5         1 ARP       0.045100
@<TRIPOS>BOND
     1     1     2 1   
     2     1    11 1   
     3     1    15 1   
     4     1    16 1   
     5     2     3 1   
     6     2     4 1   
     7     2    17 1   
     8     3    18 1   
     9     4    19 1   
    10     4    20 1   
    11     4    21 1   
    12     5     6 ar  
    13     5    11 1   
    14     5    14 ar  
    15     6     7 ar  
    16     6    12 1   
    17     7     8 ar  
    18     7    10 1   
    19     8     9 ar  
    20     9    14 ar  
    21     9    25 1   
    22    10    22 1   
    23    10    23 1   
    24    11    13 1   
    25    12    13 2   
    26    13    24 1   
@<TRIPOS>SUBSTRUCTURE
     1 ARP         1 TEMP              0 ****  ****    0 ROOT
