@<TRIPOS>MOLECULE
ARP
   25    26     1     0     0
SMALL
abcg2


@<TRIPOS>ATOM
      1 C7          -0.1720    -0.8580     2.0350 c3         1 ARP       0.048600
      2 C8          -0.3560     0.4420     2.8180 c3         1 ARP       0.145300
      3 O1           0.8550     1.1610     2.8980 oh         1 ARP      -0.646000
      4 C9          -0.9530     0.1530     4.1860 c3         1 ARP      -0.128100
      5 C4          -0.3380    -0.3300    -0.4120 ca         1 ARP       0.121500
      6 C3           0.6170    -0.0970    -1.3910 ca         1 ARP      -0.096600
      7 C2           0.1300     0.2160    -2.6730 ca         1 ARP       0.450900
      8 N2          -1.1960     0.2720    -2.8440 nb         1 ARP      -0.303000
      9 C1          -1.9950     0.0280    -1.8070 ca         1 ARP       0.181900
     10 N5           0.9320     0.4460    -3.7150 nv         1 ARP      -1.063900
     11 N4           0.3680    -0.6230     0.7160 na         1 ARP      -0.271300
     12 N3           1.8810    -0.2340    -0.8800 nc         1 ARP      -0.553100
     13 C6           1.6850    -0.5380     0.3710 cd         1 ARP       0.413700
     14 N1          -1.6600    -0.2780    -0.5660 nb         1 ARP      -0.226000
     15 H72          0.5030    -1.5330     2.5660 h1         1 ARP       0.068700
     16 H71         -1.1270    -1.3710     1.9270 h1         1 ARP       0.068700
     17 H8          -1.0420     1.0830     2.2570 h1         1 ARP       0.095700
     18 H1           1.4470     0.6970     3.4990 ho         1 ARP       0.435000
     19 H93         -1.1120     1.0780     4.7390 hc         1 ARP       0.046700
     20 H92         -1.9170    -0.3500     4.0930 hc         1 ARP       0.046700
     21 H91         -0.2970    -0.4900     4.7760 hc         1 ARP       0.046700
     22 H52          0.5440     0.7320    -4.5970 hn         1 ARP       0.505500
     23 H51          1.9300     0.4800    -3.6020 hn         1 ARP       0.505500
     24 H6           2.4640    -0.7280     1.0950 h5         1 ARP       0.062800
     25 H1C1        -3.0580     0.0880    -2.0150 h5         1 ARP       0.045100
@<TRIPOS>BOND
     1     1     2 1   
     2     1    11 1   
     3     1    15 1   
     4     1    16 1   
     5     2     3 1   
     6     2     4 1   
     7     2    17 1   
     8     3    18 1   
     9     4    19 1   
    10     4    20 1   
    11     4    21 1   
    12     5     6 ar  
    13     5    11 1   
    14     5    14 ar  
    15     6     7 ar  
    16     6    12 1   
    17     7     8 ar  
    18     7    10 1   
    19     8     9 ar  
    20     9    14 ar  
    21     9    25 1   
    22    10    22 1   
    23    10    23 1   
    24    11    13 1   
    25    12    13 2   
    26    13    24 1   
@<TRIPOS>SUBSTRUCTURE
     1 ARP         1 TEMP              0 ****  ****    0 ROOT
