@<TRIPOS>MOLECULE
ARQ
   75    77     1     0     0
SMALL
No Charge or Current Charge


@<TRIPOS>ATOM
      1 C1           4.5960    -2.3930     0.0340 c3         1 ARQ       0.223000
      2 C2           3.6280    -3.6000    -0.0710 c3         1 ARQ      -0.111767
      3 C3           4.9550    -2.0290     1.4980 c3         1 ARQ      -0.111767
      4 C4           5.8830    -2.6770    -0.7710 c3         1 ARQ      -0.111767
      5 O4           4.0130    -1.2420    -0.6210 os         1 ARQ      -0.469100
      6 C30          2.8450    -0.6740    -0.2000 c          1 ARQ       0.652100
      7 O3           2.1310    -1.0410     0.7170 o          1 ARQ      -0.559000
      8 N1           2.5700     0.3840    -1.0170 ns         1 ARQ      -0.525900
      9 C5           1.4290     1.3000    -0.8490 c3         1 ARQ       0.092700
     10 C6           1.8590     2.7610    -1.1370 c3         1 ARQ      -0.036100
     11 C7           3.0460     3.2040    -0.2850 ca         1 ARQ      -0.103300
     12 C8           4.3130     3.3990    -0.8710 ca         1 ARQ      -0.102000
     13 C9           5.4070     3.7950    -0.0820 ca         1 ARQ      -0.101500
     14 C10          5.2410     4.0000     1.2980 ca         1 ARQ      -0.094000
     15 C11          2.8860     3.4130     1.0990 ca         1 ARQ      -0.102000
     16 C12          3.9800     3.8100     1.8880 ca         1 ARQ      -0.101500
     17 C13          0.1840     0.8550    -1.6740 c3         1 ARQ       0.148300
     18 O1           0.5150     0.8110    -3.0740 oh         1 ARQ      -0.641000
     19 C14         -0.3460    -0.5350    -1.2270 c3         1 ARQ       0.049600
     20 N2          -1.8130    -0.9090    -1.5270 n4         1 ARQ      -0.297200
     21 C22         -2.0610    -0.7840    -3.0410 c3         1 ARQ       0.093900
     22 C15         -2.0470    -2.3670    -1.0870 c3         1 ARQ       0.155900
     23 C16         -1.8370    -2.6490     0.3960 ca         1 ARQ      -0.180300
     24 C17         -2.9030    -2.5150     1.3060 ca         1 ARQ      -0.080500
     25 C18         -2.7010    -2.7650     2.6740 ca         1 ARQ      -0.097500
     26 C19         -1.4340    -3.1550     3.1400 ca         1 ARQ      -0.061000
     27 C20         -0.5720    -3.0520     0.8650 ca         1 ARQ      -0.080500
     28 C21         -0.3690    -3.2990     2.2330 ca         1 ARQ      -0.097500
     29 N3          -2.7130     0.0080    -0.7780 ns         1 ARQ      -0.417300
     30 C23         -4.1010     0.0020    -0.8360 c          1 ARQ       0.624700
     31 O2          -4.7120    -0.7490    -1.5850 o          1 ARQ      -0.542100
     32 C27         -4.8200     0.9650     0.0870 ca         1 ARQ      -0.181600
     33 C26         -6.2340     1.0070     0.0750 ca         1 ARQ      -0.062000
     34 C25         -6.9350     1.8850     0.9190 ca         1 ARQ      -0.108000
     35 C24         -6.2360     2.7350     1.7900 ca         1 ARQ      -0.057000
     36 C28         -4.1260     1.8290     0.9720 ca         1 ARQ      -0.062000
     37 C29         -4.8330     2.7050     1.8140 ca         1 ARQ      -0.108000
     38 H21A         2.7780    -3.5030     0.6120 hc         1 ARQ       0.053811
     39 H22          3.2440    -3.7040    -1.0920 hc         1 ARQ       0.053811
     40 H23          4.1470    -4.5290     0.1920 hc         1 ARQ       0.053811
     41 H31          5.5900    -2.8060     1.9390 hc         1 ARQ       0.053811
     42 H32          5.5040    -1.0800     1.5390 hc         1 ARQ       0.053811
     43 H33          4.0650    -1.9410     2.1280 hc         1 ARQ       0.053811
     44 H41          5.6470    -2.8950    -1.8190 hc         1 ARQ       0.053811
     45 H42          6.5580    -1.8130    -0.7450 hc         1 ARQ       0.053811
     46 H43          6.4190    -3.5400    -0.3570 hc         1 ARQ       0.053811
     47 HN1          3.2920     0.6080    -1.6900 hn         1 ARQ       0.331500
     48 H5           1.1350     1.2690     0.2090 h1         1 ARQ       0.089700
     49 H61          2.0960     2.8690    -2.2020 hc         1 ARQ       0.064700
     50 H62          1.0070     3.4260    -0.9490 hc         1 ARQ       0.064700
     51 H8           4.4540     3.2410    -1.9380 ha         1 ARQ       0.105500
     52 H9           6.3830     3.9420    -0.5390 ha         1 ARQ       0.121500
     53 H10          6.0870     4.3070     1.9100 ha         1 ARQ       0.124000
     54 H11          1.9140     3.2680     1.5650 ha         1 ARQ       0.105500
     55 H12          3.8500     3.9690     2.9570 ha         1 ARQ       0.121500
     56 H13         -0.6120     1.5910    -1.4960 h1         1 ARQ       0.100700
     57 HO1          1.3880     0.3680    -3.1500 ho         1 ARQ       0.457000
     58 H141         0.2930    -1.3030    -1.6660 hx         1 ARQ       0.108700
     59 H142        -0.2290    -0.6040    -0.1430 hx         1 ARQ       0.108700
     60 H221        -1.3450    -1.4100    -3.5770 hx         1 ARQ       0.103367
     61 H222        -3.0770    -1.1080    -3.2700 hx         1 ARQ       0.103367
     62 H223        -1.9320     0.2580    -3.3380 hx         1 ARQ       0.103367
     63 H151        -3.0710    -2.6240    -1.3650 hx         1 ARQ       0.103200
     64 H152        -1.3820    -2.9980    -1.6810 hx         1 ARQ       0.103200
     65 H17         -3.8890    -2.2170     0.9560 ha         1 ARQ       0.118500
     66 H18         -3.5270    -2.6570     3.3740 ha         1 ARQ       0.137000
     67 H19         -1.2770    -3.3470     4.1990 ha         1 ARQ       0.137000
     68 H20          0.2590    -3.1670     0.1720 ha         1 ARQ       0.118500
     69 H21          0.6130    -3.6020     2.5910 ha         1 ARQ       0.137000
     70 HN3         -2.2940     0.6240    -0.0920 hn         1 ARQ       0.357500
     71 H26         -6.7990     0.3570    -0.5910 ha         1 ARQ       0.124500
     72 H25         -8.0230     1.9050     0.8980 ha         1 ARQ       0.135500
     73 H24         -6.7800     3.4140     2.4430 ha         1 ARQ       0.135000
     74 H28         -3.0410     1.8390     1.0250 ha         1 ARQ       0.124500
     75 H29         -4.2910     3.3640     2.4890 ha         1 ARQ       0.135500
@<TRIPOS>BOND
     1     1     2 1   
     2     1     3 1   
     3     1     4 1   
     4     1     5 1   
     5     2    38 1   
     6     2    39 1   
     7     2    40 1   
     8     3    41 1   
     9     3    42 1   
    10     3    43 1   
    11     4    44 1   
    12     4    45 1   
    13     4    46 1   
    14     5     6 1   
    15     6     7 2   
    16     6     8 1   
    17     8     9 1   
    18     8    47 1   
    19     9    10 1   
    20     9    17 1   
    21     9    48 1   
    22    10    11 1   
    23    10    49 1   
    24    10    50 1   
    25    11    12 ar  
    26    11    15 ar  
    27    12    13 ar  
    28    12    51 1   
    29    13    14 ar  
    30    13    52 1   
    31    14    16 ar  
    32    14    53 1   
    33    15    16 ar  
    34    15    54 1   
    35    16    55 1   
    36    17    18 1   
    37    17    19 1   
    38    17    56 1   
    39    18    57 1   
    40    19    20 1   
    41    19    58 1   
    42    19    59 1   
    43    20    21 1   
    44    20    22 1   
    45    20    29 1   
    46    21    60 1   
    47    21    61 1   
    48    21    62 1   
    49    22    23 1   
    50    22    63 1   
    51    22    64 1   
    52    23    24 ar  
    53    23    27 ar  
    54    24    25 ar  
    55    24    65 1   
    56    25    26 ar  
    57    25    66 1   
    58    26    28 ar  
    59    26    67 1   
    60    27    28 ar  
    61    27    68 1   
    62    28    69 1   
    63    29    30 1   
    64    29    70 1   
    65    30    31 2   
    66    30    32 1   
    67    32    33 ar  
    68    32    36 ar  
    69    33    34 ar  
    70    33    71 1   
    71    34    35 ar  
    72    34    72 1   
    73    35    37 ar  
    74    35    73 1   
    75    36    37 ar  
    76    36    74 1   
    77    37    75 1   
@<TRIPOS>SUBSTRUCTURE
     1 ARQ         1 TEMP              0 ****  ****    0 ROOT
