@<TRIPOS>MOLECULE
ARQ
   75    77     1     0     0
SMALL
bcc


@<TRIPOS>ATOM
      1 C1           4.5030    -2.2900     0.1830 c3         1 ARQ       0.199800
      2 C2           3.5480    -3.4690     0.3250 c3         1 ARQ      -0.111767
      3 C3           4.9880    -1.7840     1.5350 c3         1 ARQ      -0.111767
      4 C4           5.6920    -2.6890    -0.6820 c3         1 ARQ      -0.111767
      5 O4           3.8930    -1.2130    -0.5810 os         1 ARQ      -0.445900
      6 C30          2.7820    -0.5990    -0.1930 c          1 ARQ       0.768100
      7 O3           2.1660    -0.8150     0.8300 o          1 ARQ      -0.608000
      8 N1           2.4070     0.3110    -1.1280 ns         1 ARQ      -0.592900
      9 C5           1.3370     1.2610    -0.9200 c3         1 ARQ       0.092700
     10 C6           1.8190     2.6830    -1.2260 c3         1 ARQ      -0.036100
     11 C7           2.9140     3.1030    -0.2860 ca         1 ARQ      -0.103300
     12 C8           4.2550     2.9800    -0.6390 ca         1 ARQ      -0.120000
     13 C9           5.2610     3.3280     0.2520 ca         1 ARQ      -0.119500
     14 C10          4.9400     3.8080     1.5130 ca         1 ARQ      -0.112000
     15 C11          2.6030     3.5880     0.9830 ca         1 ARQ      -0.120000
     16 C12          3.6060     3.9400     1.8770 ca         1 ARQ      -0.119500
     17 C13          0.0970     0.8930    -1.7540 c3         1 ARQ       0.125100
     18 O1           0.3270     1.0070    -3.1310 oh         1 ARQ      -0.578800
     19 C14         -0.3540    -0.5090    -1.3390 c3         1 ARQ       0.077800
     20 N2          -1.7950    -0.8610    -1.6310 n4         1 ARQ      -0.381800
     21 C22         -2.0910    -0.6920    -3.0930 c3         1 ARQ       0.122100
     22 C15         -2.0290    -2.3370    -1.2660 c3         1 ARQ       0.184100
     23 C16         -1.8240    -2.6280     0.1850 ca         1 ARQ      -0.180300
     24 C17         -2.8880    -2.5230     1.0810 ca         1 ARQ      -0.098500
     25 C18         -2.6980    -2.7820     2.4300 ca         1 ARQ      -0.115500
     26 C19         -1.4450    -3.1560     2.8960 ca         1 ARQ      -0.079000
     27 C20         -0.5750    -3.0260     0.6600 ca         1 ARQ      -0.098500
     28 C21         -0.3850    -3.2840     2.0090 ca         1 ARQ      -0.115500
     29 N3          -2.5780     0.0160    -0.8420 ns         1 ARQ      -0.484300
     30 C23         -3.9540     0.0480    -0.8740 c          1 ARQ       0.691700
     31 O2          -4.6210    -0.6200    -1.6320 o          1 ARQ      -0.542100
     32 C27         -4.5370     0.9830     0.1200 ca         1 ARQ      -0.181600
     33 C26         -5.8100     0.6930     0.6110 ca         1 ARQ      -0.080000
     34 C25         -6.3980     1.5300     1.5440 ca         1 ARQ      -0.126000
     35 C24         -5.7290     2.6670     1.9780 ca         1 ARQ      -0.075000
     36 C28         -3.8710     2.1290     0.5510 ca         1 ARQ      -0.080000
     37 C29         -4.4700     2.9690     1.4770 ca         1 ARQ      -0.126000
     38 H21A         2.7220    -3.2540     0.9990 hc         1 ARQ       0.053811
     39 H22          3.1430    -3.7660    -0.6440 hc         1 ARQ       0.053811
     40 H23          4.0920    -4.3220     0.7300 hc         1 ARQ       0.053811
     41 H31          5.5710    -2.5660     2.0240 hc         1 ARQ       0.053811
     42 H32          5.6380    -0.9150     1.4170 hc         1 ARQ       0.053811
     43 H33          4.1680    -1.5200     2.1980 hc         1 ARQ       0.053811
     44 H41          5.3710    -3.0220    -1.6700 hc         1 ARQ       0.053811
     45 H42          6.3900    -1.8590    -0.8080 hc         1 ARQ       0.053811
     46 H43          6.2340    -3.5100    -0.2120 hc         1 ARQ       0.053811
     47 HN1          3.0330     0.4600    -1.9050 hn         1 ARQ       0.331500
     48 H5           1.0490     1.2190     0.1320 h1         1 ARQ       0.089700
     49 H61          2.1620     2.7440    -2.2620 hc         1 ARQ       0.064700
     50 H62          0.9680     3.3620    -1.1390 hc         1 ARQ       0.064700
     51 H8           4.5180     2.6140    -1.6240 ha         1 ARQ       0.123500
     52 H9           6.2980     3.2250    -0.0430 ha         1 ARQ       0.139500
     53 H10          5.7240     4.0830     2.2080 ha         1 ARQ       0.142000
     54 H11          1.5650     3.6960     1.2750 ha         1 ARQ       0.123500
     55 H12          3.3430     4.3200     2.8560 ha         1 ARQ       0.139500
     56 H13         -0.6820     1.6240    -1.5170 h1         1 ARQ       0.100700
     57 HO1          1.0170     0.3850    -3.3920 ho         1 ARQ       0.418000
     58 H141         0.2460    -1.2700    -1.8380 hx         1 ARQ       0.108700
     59 H142        -0.2270    -0.6430    -0.2650 hx         1 ARQ       0.108700
     60 H221        -1.3090    -1.2020    -3.6450 hx         1 ARQ       0.103367
     61 H222        -3.0500    -1.1390    -3.3180 hx         1 ARQ       0.103367
     62 H223        -2.0990     0.3630    -3.3410 hx         1 ARQ       0.103367
     63 H151        -3.0430    -2.5660    -1.5850 hx         1 ARQ       0.103200
     64 H152        -1.3410    -2.8940    -1.9000 hx         1 ARQ       0.103200
     65 H17         -3.8780    -2.2650     0.7250 ha         1 ARQ       0.136500
     66 H18         -3.5300    -2.6990     3.1160 ha         1 ARQ       0.155000
     67 H19         -1.2960    -3.3560     3.9490 ha         1 ARQ       0.155000
     68 H20          0.2540    -3.1390    -0.0280 ha         1 ARQ       0.136500
     69 H21          0.5900    -3.5890     2.3660 ha         1 ARQ       0.155000
     70 HN3         -2.1270     0.2600     0.0280 hn         1 ARQ       0.357500
     71 H26         -6.3350    -0.1910     0.2710 ha         1 ARQ       0.142500
     72 H25         -7.3800     1.2960     1.9320 ha         1 ARQ       0.153500
     73 H24         -6.1920     3.3220     2.7040 ha         1 ARQ       0.153000
     74 H28         -2.9010     2.3950     0.1500 ha         1 ARQ       0.142500
     75 H29         -3.9540     3.8630     1.8020 ha         1 ARQ       0.153500
@<TRIPOS>BOND
     1     1     2 1   
     2     1     3 1   
     3     1     4 1   
     4     1     5 1   
     5     2    38 1   
     6     2    39 1   
     7     2    40 1   
     8     3    41 1   
     9     3    42 1   
    10     3    43 1   
    11     4    44 1   
    12     4    45 1   
    13     4    46 1   
    14     5     6 1   
    15     6     7 2   
    16     6     8 1   
    17     8     9 1   
    18     8    47 1   
    19     9    10 1   
    20     9    17 1   
    21     9    48 1   
    22    10    11 1   
    23    10    49 1   
    24    10    50 1   
    25    11    12 ar  
    26    11    15 ar  
    27    12    13 ar  
    28    12    51 1   
    29    13    14 ar  
    30    13    52 1   
    31    14    16 ar  
    32    14    53 1   
    33    15    16 ar  
    34    15    54 1   
    35    16    55 1   
    36    17    18 1   
    37    17    19 1   
    38    17    56 1   
    39    18    57 1   
    40    19    20 1   
    41    19    58 1   
    42    19    59 1   
    43    20    21 1   
    44    20    22 1   
    45    20    29 1   
    46    21    60 1   
    47    21    61 1   
    48    21    62 1   
    49    22    23 1   
    50    22    63 1   
    51    22    64 1   
    52    23    24 ar  
    53    23    27 ar  
    54    24    25 ar  
    55    24    65 1   
    56    25    26 ar  
    57    25    66 1   
    58    26    28 ar  
    59    26    67 1   
    60    27    28 ar  
    61    27    68 1   
    62    28    69 1   
    63    29    30 1   
    64    29    70 1   
    65    30    31 2   
    66    30    32 1   
    67    32    33 ar  
    68    32    36 ar  
    69    33    34 ar  
    70    33    71 1   
    71    34    35 ar  
    72    34    72 1   
    73    35    37 ar  
    74    35    73 1   
    75    36    37 ar  
    76    36    74 1   
    77    37    75 1   
@<TRIPOS>SUBSTRUCTURE
     1 ARQ         1 TEMP              0 ****  ****    0 ROOT
