@<TRIPOS>MOLECULE
ARR
   45    47     1     0     0
SMALL
No Charge or Current Charge


@<TRIPOS>ATOM
      1 S           -1.1450     1.0520    -6.9650 ss         1 ARR       0.233000
      2 C1          -0.8870     1.2800    -8.6890 cc         1 ARR      -0.233000
      3 C2           0.2050     0.5720    -9.1160 cd         1 ARR      -0.134000
      4 C3           0.8460    -0.1610    -8.0830 cd         1 ARR      -0.099000
      5 C4           0.2490    -0.0300    -6.8450 cc         1 ARR      -0.345900
      6 C5           0.6420    -0.6160    -5.5720 ce         1 ARR       0.716800
      7 N3           1.7010    -1.3170    -5.5030 n2         1 ARR      -0.824100
      8 N1          -0.2050    -0.4610    -4.4990 nu         1 ARR      -0.919200
      9 C6          -0.0470    -0.6530    -3.1240 ca         1 ARR       0.316000
     10 C10          1.2130    -0.6940    -2.4970 ca         1 ARR      -0.156000
     11 C11          1.3150    -0.8690    -1.1060 ca         1 ARR      -0.077000
     12 C9           0.1550    -0.9990    -0.3200 ca         1 ARR      -0.116300
     13 C8          -1.1060    -0.9420    -0.9410 ca         1 ARR      -0.077000
     14 C7          -1.2030    -0.7650    -2.3320 ca         1 ARR      -0.156000
     15 C12          0.2630    -1.1820     1.1890 c3         1 ARR      -0.027100
     16 C13          0.2530     0.1660     1.9380 c3         1 ARR       0.159800
     17 N2           0.3540    -0.0470     3.3950 n7         1 ARR      -0.867400
     18 C14          0.3320     1.1810     4.2090 c3         1 ARR       0.206100
     19 C15          0.4710     0.8410     5.6860 ca         1 ARR      -0.080300
     20 C20         -0.6280     0.3230     6.3990 ca         1 ARR      -0.081000
     21 C19         -0.5040     0.0100     7.7630 ca         1 ARR       0.116000
     22 C18          0.7180     0.2120     8.4260 ca         1 ARR      -0.103000
     23 C17          1.8200     0.7270     7.7210 ca         1 ARR      -0.105000
     24 C16          1.6960     1.0400     6.3550 ca         1 ARR      -0.109000
     25 Cl          -1.8820    -0.6370     8.6440 cl         1 ARR      -0.210000
     26 H1          -1.5560     1.9180    -9.2510 h4         1 ARR       0.155000
     27 H2           0.5480     0.5720   -10.1470 ha         1 ARR       0.140000
     28 H3           1.7270    -0.7700    -8.2710 ha         1 ARR       0.141000
     29 HN3          2.1400    -1.2840    -6.4290 hn         1 ARR       0.395400
     30 HN1         -1.1390    -0.1970    -4.7830 hn         1 ARR       0.493000
     31 H10          2.1220    -0.5760    -3.0770 ha         1 ARR       0.130500
     32 H11          2.2970    -0.8970    -0.6390 ha         1 ARR       0.111000
     33 H8          -2.0130    -1.0310    -0.3450 ha         1 ARR       0.111000
     34 H7          -2.1850    -0.7230    -2.7950 ha         1 ARR       0.130500
     35 H121         1.1830    -1.7260     1.4360 hc         1 ARR       0.052200
     36 H122        -0.5670    -1.8000     1.5520 hc         1 ARR       0.052200
     37 H131        -0.6760     0.6990     1.6940 h1         1 ARR       0.033700
     38 H132         1.0930     0.7780     1.5810 h1         1 ARR       0.033700
     39 HN2          1.2380    -0.5320     3.5890 hn         1 ARR       0.411000
     40 H141        -0.6100     1.7260     4.0550 h1         1 ARR       0.038700
     41 H142         1.1500     1.8530     3.9130 h1         1 ARR       0.038700
     42 H20         -1.5770     0.1600     5.8940 ha         1 ARR       0.145000
     43 H18          0.8110    -0.0320     9.4810 ha         1 ARR       0.128000
     44 H17          2.7680     0.8840     8.2310 ha         1 ARR       0.117000
     45 H16          2.5540     1.4380     5.8170 ha         1 ARR       0.113000
@<TRIPOS>BOND
     1     1     2 1   
     2     1     5 1   
     3     2     3 2   
     4     2    26 1   
     5     3     4 1   
     6     3    27 1   
     7     4     5 2   
     8     4    28 1   
     9     5     6 1   
    10     6     7 2   
    11     6     8 1   
    12     7    29 1   
    13     8     9 1   
    14     8    30 1   
    15     9    10 ar  
    16     9    14 ar  
    17    10    11 ar  
    18    10    31 1   
    19    11    12 ar  
    20    11    32 1   
    21    12    13 ar  
    22    12    15 1   
    23    13    14 ar  
    24    13    33 1   
    25    14    34 1   
    26    15    16 1   
    27    15    35 1   
    28    15    36 1   
    29    16    17 1   
    30    16    37 1   
    31    16    38 1   
    32    17    18 1   
    33    17    39 1   
    34    18    19 1   
    35    18    40 1   
    36    18    41 1   
    37    19    20 ar  
    38    19    24 ar  
    39    20    21 ar  
    40    20    42 1   
    41    21    22 ar  
    42    21    25 1   
    43    22    23 ar  
    44    22    43 1   
    45    23    24 ar  
    46    23    44 1   
    47    24    45 1   
@<TRIPOS>SUBSTRUCTURE
     1 ARR         1 TEMP              0 ****  ****    0 ROOT
