@<TRIPOS>MOLECULE
ARR
   45    47     1     0     0
SMALL
abcg2


@<TRIPOS>ATOM
      1 S           -0.8910     1.4310    -6.9090 ss         1 ARR       0.233000
      2 C1          -0.9430     1.2820    -8.6110 cc         1 ARR      -0.233000
      3 C2          -0.1430     0.2720    -9.0540 cd         1 ARR      -0.134000
      4 C3           0.5240    -0.3960    -7.9970 cd         1 ARR      -0.099000
      5 C4           0.2150     0.1150    -6.7680 cc         1 ARR      -0.345900
      6 C5           0.7530    -0.3340    -5.4680 ce         1 ARR       0.716800
      7 N3           1.9510    -0.7420    -5.3030 n2         1 ARR      -0.824100
      8 N1          -0.1600    -0.2810    -4.4490 nu         1 ARR      -0.919200
      9 C6           0.0040    -0.5470    -3.0910 ca         1 ARR       0.316000
     10 C10          1.2260    -0.8270    -2.4760 ca         1 ARR      -0.156000
     11 C11          1.2710    -1.0610    -1.1070 ca         1 ARR      -0.077000
     12 C9           0.1310    -1.0340    -0.3120 ca         1 ARR      -0.116300
     13 C8          -1.0810    -0.7550    -0.9400 ca         1 ARR      -0.077000
     14 C7          -1.1490    -0.5160    -2.3000 ca         1 ARR      -0.156000
     15 C12          0.2030    -1.2550     1.1720 c3         1 ARR      -0.027100
     16 C13          0.4560     0.0470     1.9270 c3         1 ARR       0.159800
     17 N2           0.4840    -0.1840     3.3580 n7         1 ARR      -0.867400
     18 C14          0.7300     1.0220     4.1210 c3         1 ARR       0.206100
     19 C15          0.6270     0.7770     5.6030 ca         1 ARR      -0.080300
     20 C20         -0.3900    -0.0300     6.1100 ca         1 ARR      -0.081000
     21 C19         -0.4930    -0.2220     7.4770 ca         1 ARR       0.116000
     22 C18          0.3930     0.3670     8.3660 ca         1 ARR      -0.103000
     23 C17          1.4050     1.1660     7.8560 ca         1 ARR      -0.105000
     24 C16          1.5240     1.3670     6.4870 ca         1 ARR      -0.109000
     25 CL          -1.7660    -1.2300     8.0940 cl         1 ARR      -0.210000
     26 H1          -1.5540     1.9520    -9.1950 h4         1 ARR       0.155000
     27 H2          -0.0360     0.0100   -10.0970 ha         1 ARR       0.140000
     28 H3           1.1890    -1.2370    -8.1380 ha         1 ARR       0.141000
     29 HN3          2.4780    -0.6400    -6.1630 hn         1 ARR       0.395400
     30 HN1         -1.1180    -0.1350    -4.7250 hn         1 ARR       0.493000
     31 H10          2.1280    -0.8730    -3.0640 ha         1 ARR       0.130500
     32 H11          2.2310    -1.2820    -0.6550 ha         1 ARR       0.111000
     33 H8          -1.9940    -0.7290    -0.3560 ha         1 ARR       0.111000
     34 H7          -2.1090    -0.3030    -2.7560 ha         1 ARR       0.130500
     35 H121         1.0020    -1.9650     1.4030 hc         1 ARR       0.052200
     36 H122        -0.7290    -1.6960     1.5330 hc         1 ARR       0.052200
     37 H131        -0.3510     0.7550     1.7100 h1         1 ARR       0.033700
     38 H132         1.3830     0.5080     1.5500 h1         1 ARR       0.033700
     39 HN2          1.2090    -0.8600     3.5700 hn         1 ARR       0.411000
     40 H141        -0.0270     1.7600     3.8340 h1         1 ARR       0.038700
     41 H142         1.7020     1.4860     3.8990 h1         1 ARR       0.038700
     42 H20         -1.0870    -0.5070     5.4330 ha         1 ARR       0.145000
     43 H18          0.3000     0.2030     9.4310 ha         1 ARR       0.128000
     44 H17          2.1110     1.6280     8.5340 ha         1 ARR       0.117000
     45 H16          2.3270     1.9830     6.1030 ha         1 ARR       0.113000
@<TRIPOS>BOND
     1     1     2 1   
     2     1     5 1   
     3     2     3 2   
     4     2    26 1   
     5     3     4 1   
     6     3    27 1   
     7     4     5 2   
     8     4    28 1   
     9     5     6 1   
    10     6     7 2   
    11     6     8 1   
    12     7    29 1   
    13     8     9 1   
    14     8    30 1   
    15     9    10 ar  
    16     9    14 ar  
    17    10    11 ar  
    18    10    31 1   
    19    11    12 ar  
    20    11    32 1   
    21    12    13 ar  
    22    12    15 1   
    23    13    14 ar  
    24    13    33 1   
    25    14    34 1   
    26    15    16 1   
    27    15    35 1   
    28    15    36 1   
    29    16    17 1   
    30    16    37 1   
    31    16    38 1   
    32    17    18 1   
    33    17    39 1   
    34    18    19 1   
    35    18    40 1   
    36    18    41 1   
    37    19    20 ar  
    38    19    24 ar  
    39    20    21 ar  
    40    20    42 1   
    41    21    22 ar  
    42    21    25 1   
    43    22    23 ar  
    44    22    43 1   
    45    23    24 ar  
    46    23    44 1   
    47    24    45 1   
@<TRIPOS>SUBSTRUCTURE
     1 ARR         1 TEMP              0 ****  ****    0 ROOT
