@<TRIPOS>MOLECULE
ARU
   57    59     1     0     0
SMALL
abcg2


@<TRIPOS>ATOM
      1 N1          -6.3880     1.4460     1.6710 nb         1 ARU      -0.343000
      2 C2          -6.2730     0.2550     2.2420 ca         1 ARU       0.129900
      3 N3          -5.4920    -0.7480     1.8880 nb         1 ARU      -0.216000
      4 C4          -4.7610    -0.4410     0.8190 ca         1 ARU       0.101500
      5 C5          -4.7660     0.7590     0.1120 ca         1 ARU      -0.038600
      6 C6          -5.6430     1.7600     0.5980 ca         1 ARU       0.435900
      7 N6          -5.7770     2.9960     0.0860 nh         1 ARU      -0.770300
      8 N7          -3.8690     0.6880    -0.9280 nc         1 ARU      -0.558100
      9 C8          -3.3420    -0.4970    -0.8490 cd         1 ARU       0.489700
     10 N9          -3.8470    -1.2320     0.1890 na         1 ARU      -0.286300
     11 C1          -3.5340    -2.5970     0.5290 c5         1 ARU       0.332300
     12 C7          -4.0840    -3.6190    -0.4650 c5         1 ARU       0.055300
     13 O2          -5.4250    -3.8900    -0.1870 oh         1 ARU      -0.709000
     14 C3          -3.1230    -4.7880    -0.2370 c5         1 ARU       0.090300
     15 O3          -3.4390    -5.4750     0.9470 oh         1 ARU      -0.714000
     16 C9          -1.8070    -4.0430    -0.0440 c5         1 ARU       0.147300
     17 O4          -2.1490    -2.7770     0.5270 os         1 ARU      -0.366000
     18 C10         -1.0680    -3.8680    -1.3590 c3         1 ARU       0.238600
     19 O5           0.1260    -3.1550    -1.1670 os         1 ARU      -0.563400
     20 CAA         -8.1880     3.6550     0.1990 c3         1 ARU      -0.106100
     21 CAB         -6.7590     3.9100     0.6550 c3         1 ARU       0.232800
     22 CAD         -5.0480     3.4210    -1.1000 c3         1 ARU       0.232800
     23 CAE         -5.6760     2.9800    -2.4130 c3         1 ARU      -0.106100
     24 OAF          3.2030     2.7910     1.4800 o          1 ARU      -0.931167
     25 BRAG         1.1040     0.2700     2.3350 br         1 ARU      -0.383000
     26 OAH          3.1750     0.0540    -0.2550 o          1 ARU      -0.843000
     27 OAI          1.7230    -2.0080    -2.7710 o          1 ARU      -0.868500
     28 OAJ          1.5380     3.9080    -0.1230 o          1 ARU      -0.931167
     29 PAK          1.7500     3.1130     1.1580 p5         1 ARU       1.326500
     30 CAL          1.0050     1.4000     0.7300 c3         1 ARU      -0.161000
     31 PAM          1.7980     0.4720    -0.6690 p5         1 ARU       1.513400
     32 OAN          0.8300    -0.8760    -0.6600 os         1 ARU      -0.693800
     33 PAO          0.4760    -1.7590    -1.9770 p5         1 ARU       1.466800
     34 OAV          0.9210     3.5840     2.3460 o          1 ARU      -0.931167
     35 BRAW        -0.8870     1.6260     0.3100 br         1 ARU      -0.383000
     36 OAX          1.5780     1.2200    -1.9490 o          1 ARU      -0.843000
     37 OAY         -0.7580    -1.2620    -2.6740 o          1 ARU      -0.868500
     38 H2          -6.9060     0.0890     3.1080 h5         1 ARU       0.002100
     39 H8          -2.5490    -0.8710    -1.4880 h5         1 ARU       0.166800
     40 H1          -3.9680    -2.7700     1.5210 h2         1 ARU       0.086700
     41 H6          -3.9490    -3.2410    -1.4860 h1         1 ARU       0.074700
     42 HO2         -5.8290    -4.2850    -0.9660 ho         1 ARU       0.480000
     43 H3          -3.0870    -5.4640    -1.1010 h1         1 ARU       0.029700
     44 HO3         -4.3830    -5.6720     0.9320 ho         1 ARU       0.486000
     45 H4          -1.1620    -4.5760     0.6620 h1         1 ARU       0.088700
     46 H5          -0.8340    -4.8670    -1.7430 h1         1 ARU      -0.004300
     47 H5'A        -1.7140    -3.3820    -2.0960 h1         1 ARU      -0.004300
     48 HAA         -8.2940     3.7780    -0.8780 hc         1 ARU       0.025033
     49 HAAA        -8.5130     2.6500     0.4640 hc         1 ARU       0.025033
     50 HAAB        -8.8620     4.3650     0.6810 hc         1 ARU       0.025033
     51 HAB         -6.7050     3.8570     1.7420 h1         1 ARU       0.067200
     52 HABA        -6.4550     4.9180     0.3730 h1         1 ARU       0.067200
     53 HAD         -4.9900     4.5090    -1.0660 h1         1 ARU       0.067200
     54 HADA        -4.0250     3.0550    -1.0440 h1         1 ARU       0.067200
     55 HAE         -5.7240     1.8940    -2.4840 hc         1 ARU       0.025033
     56 HAEA        -6.6820     3.3800    -2.5380 hc         1 ARU       0.025033
     57 HAEB        -5.0720     3.3400    -3.2470 hc         1 ARU       0.025033
@<TRIPOS>BOND
     1     1     2 ar  
     2     1     6 ar  
     3     2     3 ar  
     4     2    38 1   
     5     3     4 ar  
     6     4     5 ar  
     7     4    10 1   
     8     5     6 ar  
     9     5     8 1   
    10     6     7 1   
    11     7    21 1   
    12     7    22 1   
    13     8     9 2   
    14     9    10 1   
    15     9    39 1   
    16    10    11 1   
    17    11    12 1   
    18    11    17 1   
    19    11    40 1   
    20    12    13 1   
    21    12    14 1   
    22    12    41 1   
    23    13    42 1   
    24    14    15 1   
    25    14    16 1   
    26    14    43 1   
    27    15    44 1   
    28    16    17 1   
    29    16    18 1   
    30    16    45 1   
    31    18    19 1   
    32    18    46 1   
    33    18    47 1   
    34    19    33 1   
    35    20    21 1   
    36    20    48 1   
    37    20    49 1   
    38    20    50 1   
    39    21    51 1   
    40    21    52 1   
    41    22    23 1   
    42    22    53 1   
    43    22    54 1   
    44    23    55 1   
    45    23    56 1   
    46    23    57 1   
    47    24    29 1   
    48    25    30 1   
    49    26    31 1   
    50    27    33 1   
    51    28    29 1   
    52    29    30 1   
    53    29    34 1   
    54    30    31 1   
    55    30    35 1   
    56    31    32 1   
    57    31    36 1   
    58    32    33 1   
    59    33    37 1   
@<TRIPOS>SUBSTRUCTURE
     1 ARU         1 TEMP              0 ****  ****    0 ROOT
