@<TRIPOS>MOLECULE
ARU
   57    59     1     0     0
SMALL
No Charge or Current Charge


@<TRIPOS>ATOM
      1 N1          -6.7590     1.7170     1.6860 nb         1 ARU      -0.343000
      2 C2          -6.3470     0.6310     2.3740 ca         1 ARU       0.129900
      3 N3          -5.3860    -0.2400     2.0050 nb         1 ARU      -0.216000
      4 C4          -4.7860     0.0110     0.8260 ca         1 ARU       0.101500
      5 C5          -5.1230     1.0920     0.0430 ca         1 ARU      -0.038600
      6 C6          -6.1480     1.9720     0.5060 ca         1 ARU       0.435900
      7 N6          -6.6070     3.1250    -0.1960 nh         1 ARU      -0.770300
      8 N7          -4.3720     1.1240    -1.1310 nc         1 ARU      -0.558100
      9 C8          -3.5760     0.0430    -1.0040 cd         1 ARU       0.489700
     10 N9          -3.8000    -0.6840     0.1760 na         1 ARU      -0.286300
     11 C1          -3.1070    -1.8930     0.6070 c5         1 ARU       0.332300
     12 C7          -3.7590    -3.2550     0.2030 c5         1 ARU       0.055300
     13 O2          -4.8630    -3.6670     1.0370 oh         1 ARU      -0.709000
     14 C3          -2.5270    -4.1810     0.3870 c5         1 ARU       0.090300
     15 O3          -2.2960    -4.4320     1.7790 oh         1 ARU      -0.714000
     16 C9          -1.4140    -3.3010    -0.2800 c5         1 ARU       0.147300
     17 O4          -1.7910    -1.9280     0.0200 os         1 ARU      -0.366000
     18 C10         -1.3320    -3.5040    -1.8250 c3         1 ARU       0.238600
     19 O5          -0.0310    -3.1710    -2.3420 os         1 ARU      -0.563400
     20 CAA         -9.0470     2.6920    -0.6940 c3         1 ARU      -0.106100
     21 CAB         -8.0000     3.6190    -0.0460 c3         1 ARU       0.232800
     22 CAD         -5.6810     3.9630    -0.9940 c3         1 ARU       0.232800
     23 CAE         -5.9450     3.9050    -2.5120 c3         1 ARU      -0.106100
     24 OAF          4.1220    -0.0600     1.9080 o          1 ARU      -0.931167
     25 BrAG         1.1930    -1.7710     2.1610 br         1 ARU      -0.383000
     26 OAH          3.3820    -0.7180    -0.9230 o          1 ARU      -0.843000
     27 OAI          1.6040    -1.6110    -3.4470 o          1 ARU      -0.868500
     28 OAJ          3.3920     1.9950     0.7730 o          1 ARU      -0.931167
     29 PAK          2.9800     0.8740     1.6670 p5         1 ARU       1.326500
     30 CAL          1.4690    -0.0380     1.0900 c3         1 ARU      -0.161000
     31 PAM          1.9660    -0.2820    -0.6960 p5         1 ARU       1.513400
     32 OAN          1.0010    -1.5120    -0.9580 os         1 ARU      -0.693800
     33 PAO          0.5020    -1.6510    -2.4410 p5         1 ARU       1.466800
     34 OAV          2.6350     1.4600     3.0000 o          1 ARU      -0.931167
     35 BrAW        -0.2610     1.0480     1.3070 br         1 ARU      -0.383000
     36 OAX          1.5850     0.9250    -1.5040 o          1 ARU      -0.843000
     37 OAY         -0.6280    -0.7410    -2.7940 o          1 ARU      -0.868500
     38 H2          -6.8430     0.4370     3.3240 h5         1 ARU       0.002100
     39 H8          -2.8320    -0.2760    -1.7250 h5         1 ARU       0.166800
     40 H1          -3.0120    -1.8290     1.6990 h2         1 ARU       0.086700
     41 H6          -4.0680    -3.2200    -0.8530 h1         1 ARU       0.074700
     42 HO2         -5.4280    -4.2760     0.5060 ho         1 ARU       0.480000
     43 H3          -2.6610    -5.1340    -0.1440 h1         1 ARU       0.029700
     44 HO3         -3.1970    -4.4010     2.1830 ho         1 ARU       0.486000
     45 H4          -0.4310    -3.5190     0.1550 h1         1 ARU       0.088700
     46 H5          -1.5330    -4.5600    -2.0460 h1         1 ARU      -0.004300
     47 H5'A        -2.1160    -2.9190    -2.3220 h1         1 ARU      -0.004300
     48 HAA         -8.8490     2.5760    -1.7660 hc         1 ARU       0.025033
     49 HAAA        -9.0320     1.7000    -0.2290 hc         1 ARU       0.025033
     50 HAAB       -10.0520     3.1130    -0.5730 hc         1 ARU       0.025033
     51 HAB         -8.2470     3.7520     1.0160 h1         1 ARU       0.067200
     52 HABA        -8.0990     4.6130    -0.5050 h1         1 ARU       0.067200
     53 HAD         -5.7620     5.0100    -0.6680 h1         1 ARU       0.067200
     54 HADA        -4.6380     3.6760    -0.8030 h1         1 ARU       0.067200
     55 HAE         -5.8690     2.8760    -2.8820 hc         1 ARU       0.025033
     56 HAEA        -6.9450     4.2850    -2.7490 hc         1 ARU       0.025033
     57 HAEB        -5.2110     4.5190    -3.0470 hc         1 ARU       0.025033
@<TRIPOS>BOND
     1     1     2 ar  
     2     1     6 ar  
     3     2     3 ar  
     4     2    38 1   
     5     3     4 ar  
     6     4     5 ar  
     7     4    10 1   
     8     5     6 ar  
     9     5     8 1   
    10     6     7 1   
    11     7    21 1   
    12     7    22 1   
    13     8     9 2   
    14     9    10 1   
    15     9    39 1   
    16    10    11 1   
    17    11    12 1   
    18    11    17 1   
    19    11    40 1   
    20    12    13 1   
    21    12    14 1   
    22    12    41 1   
    23    13    42 1   
    24    14    15 1   
    25    14    16 1   
    26    14    43 1   
    27    15    44 1   
    28    16    17 1   
    29    16    18 1   
    30    16    45 1   
    31    18    19 1   
    32    18    46 1   
    33    18    47 1   
    34    19    33 1   
    35    20    21 1   
    36    20    48 1   
    37    20    49 1   
    38    20    50 1   
    39    21    51 1   
    40    21    52 1   
    41    22    23 1   
    42    22    53 1   
    43    22    54 1   
    44    23    55 1   
    45    23    56 1   
    46    23    57 1   
    47    24    29 1   
    48    25    30 1   
    49    26    31 1   
    50    27    33 1   
    51    28    29 1   
    52    29    30 1   
    53    29    34 1   
    54    30    31 1   
    55    30    35 1   
    56    31    32 1   
    57    31    36 1   
    58    32    33 1   
    59    33    37 1   
@<TRIPOS>SUBSTRUCTURE
     1 ARU         1 TEMP              0 ****  ****    0 ROOT
