@<TRIPOS>MOLECULE
ARV
   33    32     1     0     0
SMALL
bcc


@<TRIPOS>ATOM
      1 N            8.5190    -1.3160    26.0410 n8         1 ARV      -0.862800
      2 CA           8.8970    -1.6360    24.6740 c3         1 ARV       0.018500
      3 C            8.9570    -3.1680    24.4680 c          1 ARV       0.934600
      4 O            8.8140    -3.5720    23.2970 o          1 ARV      -0.821300
      5 CB          10.2430    -1.0480    24.2140 c3         1 ARV      -0.106400
      6 CG          10.3170     0.4700    24.3190 c3         1 ARV      -0.111400
      7 CD          11.5630     1.0660    23.6820 c3         1 ARV       0.033300
      8 NE          12.7710     0.5770    24.3360 nu         1 ARV      -0.389100
      9 CZ          13.8320     0.0490    23.7360 cz         1 ARV       0.526300
     10 NH1         14.5550    -0.8590    24.3850 nv         1 ARV      -0.522200
     11 NH2         14.2000     0.4090    22.5070 nu         1 ARV      -0.393200
     12 OXT          9.1950    -3.8620    25.4770 o          1 ARV      -0.821300
     13 C1          14.0220     1.7270    21.9010 c3         1 ARV       0.082500
     14 C2          13.2200     1.6770    20.6370 c2         1 ARV      -0.223200
     15 C3          12.1930     2.4760    20.3790 c2         1 ARV      -0.153000
     16 H            8.6230    -0.3250    26.2180 hn         1 ARV       0.318300
     17 H2           9.1480    -1.7960    26.6720 hn         1 ARV       0.318300
     18 HA           8.1240    -1.2320    24.0100 h1         1 ARV       0.053700
     19 HB2         10.4120    -1.3420    23.1740 hc         1 ARV       0.037200
     20 HB3         11.0480    -1.5030    24.8020 hc         1 ARV       0.037200
     21 HG2         10.2650     0.7910    25.3640 hc         1 ARV       0.060200
     22 HG3          9.4560     0.9210    23.8180 hc         1 ARV       0.060200
     23 HD2         11.5230     2.1560    23.7360 h1         1 ARV       0.064200
     24 HD3         11.6010     0.7920    22.6280 h1         1 ARV       0.064200
     25 HE          12.7020     0.4150    25.3310 hn         1 ARV       0.311700
     26 HH11        14.1720    -1.3620    25.1680 hn         1 ARV       0.323700
     27 HH12        15.4710    -1.1260    24.0660 hn         1 ARV       0.323700
     28 HH2         14.8960    -0.1730    22.0660 hn         1 ARV       0.303700
     29 HC11        15.0220     2.1100    21.6820 h1         1 ARV       0.068200
     30 HC12        13.5810     2.4120    22.6230 h1         1 ARV       0.068200
     31 HC2         13.5460     0.9570    19.8930 ha         1 ARV       0.141000
     32 HC31        11.8440     3.2070    21.0990 ha         1 ARV       0.128500
     33 HC32        11.6650     2.4310    19.4360 ha         1 ARV       0.128500
@<TRIPOS>BOND
     1     1     2 1   
     2     1    16 1   
     3     1    17 1   
     4     2     3 1   
     5     2     5 1   
     6     2    18 1   
     7     3     4 1   
     8     3    12 1   
     9     5     6 1   
    10     5    19 1   
    11     5    20 1   
    12     6     7 1   
    13     6    21 1   
    14     6    22 1   
    15     7     8 1   
    16     7    23 1   
    17     7    24 1   
    18     8     9 2   
    19     8    25 1   
    20     9    10 1   
    21     9    11 1   
    22    10    26 1   
    23    10    27 1   
    24    11    13 1   
    25    11    28 1   
    26    13    14 1   
    27    13    29 1   
    28    13    30 1   
    29    14    15 2   
    30    14    31 1   
    31    15    32 1   
    32    15    33 1   
@<TRIPOS>SUBSTRUCTURE
     1 ARV         1 TEMP              0 ****  ****    0 ROOT
