@<TRIPOS>MOLECULE
ARV
   33    32     1     0     0
SMALL
No Charge or Current Charge


@<TRIPOS>ATOM
      1 N            8.6480    -1.2570    26.2470 n8         1 ARV      -0.862800
      2 CA           8.7520    -1.6910    24.8040 c3         1 ARV       0.018500
      3 C            8.5130    -3.2350    24.4950 c          1 ARV       0.934600
      4 O            7.5730    -3.5510    23.7700 o          1 ARV      -0.821300
      5 CB          10.0970    -1.2020    24.2000 c3         1 ARV      -0.106400
      6 CG          10.2590     0.3410    24.1530 c3         1 ARV      -0.111400
      7 CD          11.5420     0.8070    23.4340 c3         1 ARV       0.033300
      8 NE          12.7430     0.4350    24.1980 nu         1 ARV      -0.389100
      9 CZ          13.9610     0.1530    23.7310 cz         1 ARV       0.526300
     10 NH1         14.7260    -0.6750    24.4260 nv         1 ARV      -0.522200
     11 NH2         14.4340     0.6430    22.5830 nu         1 ARV      -0.393200
     12 OXT          9.2250    -4.0690    25.0490 o          1 ARV      -0.821300
     13 C1          14.1850     1.9610    21.9880 c3         1 ARV       0.082500
     14 C2          13.3840     1.8050    20.7150 c2         1 ARV      -0.223200
     15 C3          12.2710     2.4900    20.4080 c2         1 ARV      -0.153000
     16 H            8.9300    -0.2760    26.3260 hn         1 ARV       0.318300
     17 H2           9.3420    -1.7730    26.7990 hn         1 ARV       0.318300
     18 HA           7.9540    -1.1620    24.2650 h1         1 ARV       0.053700
     19 HB2         10.1720    -1.5860    23.1750 hc         1 ARV       0.037200
     20 HB3         10.9290    -1.6480    24.7590 hc         1 ARV       0.037200
     21 HG2         10.2430     0.7590    25.1670 hc         1 ARV       0.060200
     22 HG3          9.3980     0.7690    23.6250 hc         1 ARV       0.060200
     23 HD2         11.5070     1.8980    23.3200 h1         1 ARV       0.064200
     24 HD3         11.5770     0.3640    22.4290 h1         1 ARV       0.064200
     25 HE          12.5800     0.2320    25.1770 hn         1 ARV       0.311700
     26 HH11        14.4020    -1.1340    25.2650 hn         1 ARV       0.323700
     27 HH12        15.6760    -0.8870    24.1530 hn         1 ARV       0.323700
     28 HH2         15.1930     0.1230    22.1570 hn         1 ARV       0.303700
     29 HC11        15.1440     2.4440    21.7570 h1         1 ARV       0.068200
     30 HC12        13.6570     2.6110    22.6980 h1         1 ARV       0.068200
     31 HC2         13.7820     1.0700    20.0140 ha         1 ARV       0.141000
     32 HC31        11.8510     3.2350    21.0840 ha         1 ARV       0.128500
     33 HC32        11.7450     2.3270    19.4680 ha         1 ARV       0.128500
@<TRIPOS>BOND
     1     1     2 1   
     2     1    16 1   
     3     1    17 1   
     4     2     3 1   
     5     2     5 1   
     6     2    18 1   
     7     3     4 1   
     8     3    12 1   
     9     5     6 1   
    10     5    19 1   
    11     5    20 1   
    12     6     7 1   
    13     6    21 1   
    14     6    22 1   
    15     7     8 1   
    16     7    23 1   
    17     7    24 1   
    18     8     9 2   
    19     8    25 1   
    20     9    10 1   
    21     9    11 1   
    22    10    26 1   
    23    10    27 1   
    24    11    13 1   
    25    11    28 1   
    26    13    14 1   
    27    13    29 1   
    28    13    30 1   
    29    14    15 2   
    30    14    31 1   
    31    15    32 1   
    32    15    33 1   
@<TRIPOS>SUBSTRUCTURE
     1 ARV         1 TEMP              0 ****  ****    0 ROOT
