@<TRIPOS>MOLECULE
ARW
   23    23     1     0     0
SMALL
abcg2


@<TRIPOS>ATOM
      1 C1           0.0970    -0.3180     1.0370 c6         1 ARW       0.352300
      2 C2          -1.1790    -0.0420     0.2380 c6         1 ARW       0.158300
      3 C3          -0.9020    -0.2250    -1.2530 c6         1 ARW       0.180300
      4 C4           0.3260     0.5870    -1.6600 c6         1 ARW       0.095300
      5 C5           1.5000     0.2690    -0.7370 c6         1 ARW       0.138600
      6 O1          -0.1660    -0.0420     2.3630 os         1 ARW      -0.458000
      7 O2          -1.6370     1.2740     0.4180 oh         1 ARW      -0.718000
      8 O3          -0.7090    -1.6050    -1.4640 oh         1 ARW      -0.670000
      9 O4           0.6180     0.2630    -3.0000 oh         1 ARW      -0.730000
     10 O5           1.1510     0.5080     0.6090 os         1 ARW      -0.474000
     11 CM           0.8380    -0.4530     3.2710 c3         1 ARW       0.154900
     12 H1           0.3860    -1.3760     0.9050 h2         1 ARW       0.045700
     13 HA          -1.9380    -0.7770     0.5450 h1         1 ARW       0.063700
     14 H3          -1.7730     0.1380    -1.8190 h1         1 ARW       0.065700
     15 H4           0.0780     1.6510    -1.5540 h1         1 ARW       0.069700
     16 H5C1         2.3530     0.9120    -0.9660 h1         1 ARW       0.052700
     17 H5C2         1.8210    -0.7720    -0.8840 h1         1 ARW       0.052700
     18 H2          -1.7070     1.4490     1.3620 ho         1 ARW       0.529000
     19 HB          -0.4340    -1.7340    -2.3780 ho         1 ARW       0.468000
     20 HC           1.3590     0.8000    -3.2970 ho         1 ARW       0.513000
     21 HMC1         0.4120    -0.3970     4.2710 h1         1 ARW       0.036700
     22 HMC2         1.1480    -1.4860     3.0840 h1         1 ARW       0.036700
     23 HMC3         1.7220     0.1880     3.2330 h1         1 ARW       0.036700
@<TRIPOS>BOND
     1     1     2 1   
     2     1     6 1   
     3     1    10 1   
     4     1    12 1   
     5     2     3 1   
     6     2     7 1   
     7     2    13 1   
     8     3     4 1   
     9     3     8 1   
    10     3    14 1   
    11     4     5 1   
    12     4     9 1   
    13     4    15 1   
    14     5    10 1   
    15     5    16 1   
    16     5    17 1   
    17     6    11 1   
    18     7    18 1   
    19     8    19 1   
    20     9    20 1   
    21    11    21 1   
    22    11    22 1   
    23    11    23 1   
@<TRIPOS>SUBSTRUCTURE
     1 ARW         1 TEMP              0 ****  ****    0 ROOT
