@<TRIPOS>MOLECULE
ARW
   23    23     1     0     0
SMALL
No Charge or Current Charge


@<TRIPOS>ATOM
      1 C1           0.0350    -0.3750     1.0620 c6         1 ARW       0.352300
      2 C2          -1.2580    -0.0680     0.2310 c6         1 ARW       0.158300
      3 C3          -0.9500    -0.2600    -1.2900 c6         1 ARW       0.180300
      4 C4           0.3100     0.5580    -1.7160 c6         1 ARW       0.095300
      5 C5           1.4990     0.2690    -0.7480 c6         1 ARW       0.138600
      6 O1          -0.2140    -0.0910     2.4520 os         1 ARW      -0.458000
      7 O2          -1.7280     1.2760     0.5010 oh         1 ARW      -0.718000
      8 O3          -0.7200    -1.6420    -1.6120 oh         1 ARW      -0.670000
      9 O4           0.6640     0.2350    -3.0820 oh         1 ARW      -0.730000
     10 O5           1.1040     0.4910     0.6240 os         1 ARW      -0.474000
     11 CM           0.8320    -0.4530     3.3700 c3         1 ARW       0.154900
     12 H1           0.3230    -1.4300     0.9380 h2         1 ARW       0.045700
     13 HA          -2.0290    -0.7960     0.5210 h1         1 ARW       0.063700
     14 H3          -1.8130     0.1120    -1.8640 h1         1 ARW       0.065700
     15 H4           0.0610     1.6270    -1.6340 h1         1 ARW       0.069700
     16 H5C1         2.3420     0.9350    -0.9820 h1         1 ARW       0.052700
     17 H5C2         1.8460    -0.7690    -0.8600 h1         1 ARW       0.052700
     18 H2          -1.3630     1.4920     1.3940 ho         1 ARW       0.529000
     19 HB          -0.1900    -1.5930    -2.4430 ho         1 ARW       0.468000
     20 HC           1.2750     0.9420    -3.4050 ho         1 ARW       0.513000
     21 HMC1         0.5310    -0.2230     4.4000 h1         1 ARW       0.036700
     22 HMC2         1.0510    -1.5270     3.3100 h1         1 ARW       0.036700
     23 HMC3         1.7550     0.1020     3.1550 h1         1 ARW       0.036700
@<TRIPOS>BOND
     1     1     2 1   
     2     1     6 1   
     3     1    10 1   
     4     1    12 1   
     5     2     3 1   
     6     2     7 1   
     7     2    13 1   
     8     3     4 1   
     9     3     8 1   
    10     3    14 1   
    11     4     5 1   
    12     4     9 1   
    13     4    15 1   
    14     5    10 1   
    15     5    16 1   
    16     5    17 1   
    17     6    11 1   
    18     7    18 1   
    19     8    19 1   
    20     9    20 1   
    21    11    21 1   
    22    11    22 1   
    23    11    23 1   
@<TRIPOS>SUBSTRUCTURE
     1 ARW         1 TEMP              0 ****  ****    0 ROOT
