@<TRIPOS>MOLECULE
ARX
   97    99     1     0     0
SMALL
No Charge or Current Charge


@<TRIPOS>ATOM
      1 N1         -10.8790    -1.5970    -2.1880 nb         1 ARX      -0.304000
      2 C2         -11.1050    -0.9420    -1.0240 ca         1 ARX       0.179900
      3 N3         -10.2550    -0.0970    -0.3940 nb         1 ARX      -0.224000
      4 C4          -9.0640     0.1050    -0.9940 ca         1 ARX       0.116500
      5 C5          -8.7410    -0.5040    -2.1810 ca         1 ARX      -0.095600
      6 C6          -9.6880    -1.3740    -2.7630 ca         1 ARX       0.449900
      7 N6          -9.4620    -2.0240    -3.9360 nv         1 ARX      -1.064900
      8 N7          -7.4840    -0.1350    -2.6430 nc         1 ARX      -0.558100
      9 C8          -7.0710     0.7170    -1.6840 cd         1 ARX       0.419700
     10 N9          -7.9920     0.8850    -0.6310 na         1 ARX      -0.313300
     11 O2          -8.3600     2.1480     2.9700 oh         1 ARX      -0.701000
     12 O4          -6.4560     2.1480     0.6690 os         1 ARX      -0.413000
     13 C3          -6.9320     0.3160     2.1800 c5         1 ARX       0.094300
     14 C9          -8.2100     1.1630     1.9320 c5         1 ARX       0.100300
     15 C10         -5.8180     1.2860     1.6630 c5         1 ARX       0.078300
     16 C1          -7.8480     1.7710     0.5330 c5         1 ARX       0.323300
     17 C26          3.5390    -0.4720     1.3910 c          1 ARX       0.603100
     18 O28          4.0670    -0.0400     2.4060 o          1 ARX      -0.611100
     19 C25          2.2550    -1.3060     1.4220 c3         1 ARX      -0.154400
     20 C24          1.0110    -0.4160     1.6560 c3         1 ARX      -0.068400
     21 C23         -0.3090    -1.2180     1.6750 c3         1 ARX      -0.074400
     22 C22         -1.5540    -0.3270     1.8710 c3         1 ARX      -0.095400
     23 C21         -2.8690    -1.1330     1.8970 c3         1 ARX       0.104000
     24 N27          4.0710    -0.2740     0.1360 ns         1 ARX      -0.487900
     25 C29          5.2990     0.4990    -0.1630 c3         1 ARX       0.040700
     26 C37          4.9660     1.9750    -0.5220 c3         1 ARX      -0.089400
     27 C38          4.2750     2.7770     0.6090 c3         1 ARX      -0.090400
     28 C39          4.0560     4.2600     0.2480 c3         1 ARX       0.223800
     29 N40          3.4250     4.9730     1.3670 nu         1 ARX      -0.904400
     30 C41          3.1220     6.2610     1.3470 c2         1 ARX       0.793100
     31 N43          2.5810     6.5290     2.5060 nv         1 ARX      -1.070200
     32 N42          3.3320     7.0370     0.3960 n2         1 ARX      -0.891100
     33 C30          6.1030    -0.1970    -1.3020 c          1 ARX       0.593100
     34 O35          5.6380    -1.0910    -1.9990 o          1 ARX      -0.594100
     35 N31          7.3910     0.2690    -1.4770 ns         1 ARX      -0.481900
     36 C32          8.3490    -0.2210    -2.4960 c3         1 ARX       0.031700
     37 C78          9.3210    -1.2850    -1.9100 c3         1 ARX      -0.084400
     38 C79          8.6290    -2.5430    -1.3260 c3         1 ARX      -0.092400
     39 C85          9.6330    -3.6000    -0.8220 c3         1 ARX       0.220800
     40 N77          8.9230    -4.7730    -0.2910 nu         1 ARX      -0.902400
     41 C86          9.5240    -5.8400     0.2080 c2         1 ARX       0.786100
     42 N93          8.5720    -6.6380     0.6180 nv         1 ARX      -1.065200
     43 N94         10.7560    -5.9790     0.3350 n2         1 ARX      -0.892100
     44 C75          9.1110     0.9790    -3.1400 c          1 ARX       0.594100
     45 O77          9.0030     2.1350    -2.7590 o          1 ARX      -0.605100
     46 N76          9.9370     0.6920    -4.1720 nt         1 ARX      -0.601000
     47 H2         -12.0680    -1.1130    -0.5460 h5         1 ARX       0.045100
     48 HN6        -10.2660    -2.3840    -4.4430 hn         1 ARX       0.506500
     49 HN6A        -8.6740    -1.7040    -4.4950 hn         1 ARX       0.506500
     50 H8          -6.1280     1.2520    -1.6940 h5         1 ARX       0.099800
     51 HO3         -7.3180    -0.8230     3.7520 ho         1 ARX       0.524000
     52 HO2         -7.8310     1.7810     3.7220 ho         1 ARX       0.523000
     53 H3          -6.9560    -0.5970     1.5660 h1         1 ARX       0.070700
     54 H5          -9.1050     0.5280     1.8810 h1         1 ARX       0.080700
     55 H4          -5.4300     1.9190     2.4720 h1         1 ARX       0.083700
     56 H1          -8.4680     2.6520     0.3190 h2         1 ARX       0.128700
     57 H25          2.1270    -1.8320     0.4680 hc         1 ARX       0.062700
     58 H25A         2.3250    -2.0300     2.2420 hc         1 ARX       0.062700
     59 H24          1.1220     0.1190     2.6080 hc         1 ARX       0.051200
     60 H24A         0.9610     0.3440     0.8660 hc         1 ARX       0.051200
     61 H23         -0.4090    -1.7710     0.7310 hc         1 ARX       0.044700
     62 H23A        -0.2670    -1.9640     2.4790 hc         1 ARX       0.044700
     63 H22         -1.4580     0.2310     2.8120 hc         1 ARX       0.045200
     64 H22A        -1.5980     0.4120     1.0620 hc         1 ARX       0.045200
     65 H21         -2.9760    -1.6970     0.9600 h1         1 ARX       0.055200
     66 H21A        -2.8390    -1.8550     2.7250 h1         1 ARX       0.055200
     67 HN20        -4.4730    -0.2190     2.9900 hn         1 ARX       0.321500
     68 HN27         3.5850    -0.7120    -0.6380 hn         1 ARX       0.324500
     69 H29          5.9470     0.4900     0.7230 h1         1 ARX       0.072700
     70 H37          5.8940     2.4940    -0.7930 hc         1 ARX       0.068200
     71 H37A         4.3290     1.9910    -1.4160 hc         1 ARX       0.068200
     72 H38          3.3040     2.3230     0.8400 hc         1 ARX       0.043700
     73 H38A         4.8880     2.7150     1.5170 hc         1 ARX       0.043700
     74 H39          5.0260     4.7200     0.0090 h1         1 ARX       0.055200
     75 H39A         3.4230     4.3240    -0.6480 h1         1 ARX       0.055200
     76 HN40         2.7770     4.4400     1.9320 hn         1 ARX       0.460000
     77 HN43         3.0450     6.0150     3.2420 hn         1 ARX       0.452000
     78 HN4A         2.5060     7.5190     2.6960 hn         1 ARX       0.452000
     79 HN42         2.9790     7.9620     0.6650 hn         1 ARX       0.380400
     80 HN31         7.6850     1.0350    -0.8800 hn         1 ARX       0.319500
     81 H32          7.7840    -0.6880    -3.3140 h1         1 ARX       0.079700
     82 H78         10.0150    -1.6100    -2.6950 hc         1 ARX       0.057200
     83 H78A         9.9320    -0.8170    -1.1270 hc         1 ARX       0.057200
     84 H79          7.9780    -2.2500    -0.4920 hc         1 ARX       0.050200
     85 H79A         7.9890    -2.9920    -2.0960 hc         1 ARX       0.050200
     86 H85         10.2870    -3.9010    -1.6540 h1         1 ARX       0.051700
     87 H85A        10.2660    -3.1550    -0.0400 h1         1 ARX       0.051700
     88 HN77         8.0370    -4.5970     0.1630 hn         1 ARX       0.470000
     89 HN93         7.8140    -6.6650    -0.0510 hn         1 ARX       0.452000
     90 HN9A         8.9010    -7.5570     0.8850 hn         1 ARX       0.452000
     91 HN94        10.9220    -6.8750     0.8060 hn         1 ARX       0.377400
     92 HN76        10.4500     1.4410    -4.6140 hn         1 ARX       0.316000
     93 HN7A        10.0310    -0.2580    -4.5010 hn         1 ARX       0.316000
     94 O3          -6.7810    -0.0110     3.5730 oh         1 ARX      -0.714000
     95 C11         -4.6300     0.4670     1.0680 c          1 ARX       0.599100
     96 N20         -4.0390    -0.2720     2.0730 ns         1 ARX      -0.498900
     97 O5          -4.2310     0.4600    -0.0900 o          1 ARX      -0.593100
@<TRIPOS>BOND
     1     1     2 ar  
     2     1     6 ar  
     3     2     3 ar  
     4     2    47 1   
     5     3     4 ar  
     6     4     5 ar  
     7     4    10 1   
     8     5     6 ar  
     9     5     8 1   
    10     6     7 1   
    11     7    48 1   
    12     7    49 1   
    13     8     9 2   
    14     9    10 1   
    15     9    50 1   
    16    10    16 1   
    17    11    14 1   
    18    11    52 1   
    19    12    15 1   
    20    12    16 1   
    21    13    14 1   
    22    13    15 1   
    23    13    53 1   
    24    13    94 1   
    25    14    16 1   
    26    14    54 1   
    27    15    55 1   
    28    15    95 1   
    29    16    56 1   
    30    17    18 2   
    31    17    19 1   
    32    17    24 1   
    33    19    20 1   
    34    19    57 1   
    35    19    58 1   
    36    20    21 1   
    37    20    59 1   
    38    20    60 1   
    39    21    22 1   
    40    21    61 1   
    41    21    62 1   
    42    22    23 1   
    43    22    63 1   
    44    22    64 1   
    45    23    65 1   
    46    23    66 1   
    47    23    96 1   
    48    24    25 1   
    49    24    68 1   
    50    25    26 1   
    51    25    33 1   
    52    25    69 1   
    53    26    27 1   
    54    26    70 1   
    55    26    71 1   
    56    27    28 1   
    57    27    72 1   
    58    27    73 1   
    59    28    29 1   
    60    28    74 1   
    61    28    75 1   
    62    29    30 1   
    63    29    76 1   
    64    30    31 1   
    65    30    32 2   
    66    31    77 1   
    67    31    78 1   
    68    32    79 1   
    69    33    34 2   
    70    33    35 1   
    71    35    36 1   
    72    35    80 1   
    73    36    37 1   
    74    36    44 1   
    75    36    81 1   
    76    37    38 1   
    77    37    82 1   
    78    37    83 1   
    79    38    39 1   
    80    38    84 1   
    81    38    85 1   
    82    39    40 1   
    83    39    86 1   
    84    39    87 1   
    85    40    41 1   
    86    40    88 1   
    87    41    42 1   
    88    41    43 2   
    89    42    89 1   
    90    42    90 1   
    91    43    91 1   
    92    44    45 2   
    93    44    46 1   
    94    46    92 1   
    95    46    93 1   
    96    51    94 1   
    97    67    96 1   
    98    95    96 1   
    99    95    97 2   
@<TRIPOS>SUBSTRUCTURE
     1 ARX         1 TEMP              0 ****  ****    0 ROOT
