@<TRIPOS>MOLECULE
ARX
   97    99     1     0     0
SMALL
bcc


@<TRIPOS>ATOM
      1 N1         -12.5120    -3.1700    -0.2450 nb         1 ARX      -0.830000
      2 C2         -12.1790    -2.5840     0.9030 ca         1 ARX       0.705900
      3 N3         -11.1410    -1.8060     1.1560 nb         1 ARX      -0.750000
      4 C4         -10.3840    -1.6330     0.0740 ca         1 ARX       0.444800
      5 C5         -10.5980    -2.1750    -1.1830 ca         1 ARX      -0.226200
      6 C6         -11.7390    -2.9880    -1.3210 ca         1 ARX       0.778200
      7 N6         -12.0660    -3.5830    -2.4690 nv         1 ARX      -0.954500
      8 N7          -9.6160    -1.7830    -2.0540 nc         1 ARX      -0.558100
      9 C8          -8.8300    -1.0270    -1.3420 cd         1 ARX       0.419700
     10 N9          -9.2430    -0.8960    -0.0430 na         1 ARX      -0.284000
     11 O2          -7.7540    -0.4690     3.2150 oh         1 ARX      -0.578800
     12 O4          -7.7610     0.8140     0.5130 os         1 ARX      -0.366600
     13 C3          -6.4110    -0.9460     1.2620 c5         1 ARX       0.071100
     14 C9          -7.7790    -1.0520     1.9430 c5         1 ARX       0.077100
     15 C10         -6.4180     0.5260     0.8330 c5         1 ARX       0.055100
     16 C1          -8.6240    -0.1510     1.0430 c5         1 ARX       0.270800
     17 C26          3.1540     0.6960    -1.0380 c          1 ARX       0.670100
     18 O28          3.3850    -0.4170    -0.5840 o          1 ARX      -0.611100
     19 C25          1.8280     1.0470    -1.6680 c3         1 ARX      -0.154400
     20 C24          0.6690     0.8770    -0.6880 c3         1 ARX      -0.068400
     21 C23         -0.6840     1.0900    -1.3540 c3         1 ARX      -0.074400
     22 C22         -1.8360     0.9740    -0.3650 c3         1 ARX      -0.095400
     23 C21         -3.1900     1.1490    -1.0340 c3         1 ARX       0.104000
     24 N27          4.0650     1.6830    -0.9860 ns         1 ARX      -0.554900
     25 C29          5.3970     1.4480    -0.4990 c3         1 ARX       0.040700
     26 C37          6.1620     2.7650    -0.3590 c3         1 ARX      -0.089400
     27 C38          5.5560     3.6960     0.6830 c3         1 ARX      -0.090400
     28 C39          6.4110     4.9390     0.8780 c3         1 ARX       0.223800
     29 N40          5.8200     5.8030     1.8720 nu         1 ARX      -0.849200
     30 C41          6.3510     7.0400     2.1220 c2         1 ARX       0.793100
     31 N43          5.7550     7.7050     3.1730 nv         1 ARX      -0.959800
     32 N42          7.2610     7.5220     1.3570 n2         1 ARX      -0.891100
     33 C30          6.1560     0.5210    -1.4480 c          1 ARX       0.660100
     34 O35          5.9380     0.4940    -2.6470 o          1 ARX      -0.594100
     35 N31          7.1050    -0.2290    -0.8650 ns         1 ARX      -0.548900
     36 C32          8.0520    -0.9710    -1.6510 c3         1 ARX       0.031700
     37 C78          8.9410    -1.8300    -0.7500 c3         1 ARX      -0.084400
     38 C79          8.1630    -2.8830     0.0290 c3         1 ARX      -0.092400
     39 C85          9.0970    -3.7700     0.8390 c3         1 ARX       0.220800
     40 N77          8.3430    -4.7550     1.5770 nu         1 ARX      -0.847200
     41 C86          8.9890    -5.7250     2.2960 c2         1 ARX       0.786100
     42 N93          8.1500    -6.4430     3.1250 nv         1 ARX      -0.954800
     43 N94         10.2570    -5.8820     2.1860 n2         1 ARX      -0.892100
     44 C75          8.9240    -0.0150    -2.4720 c          1 ARX       0.661100
     45 O77          9.1880     1.1090    -2.0800 o          1 ARX      -0.605100
     46 N76          9.3980    -0.5400    -3.6090 nt         1 ARX      -0.668000
     47 H2         -12.8480    -2.7740     1.7350 h5         1 ARX       0.045100
     48 HN6        -12.9220    -4.1060    -2.5420 hn         1 ARX       0.451300
     49 HN6A       -11.5400    -3.4120    -3.3080 hn         1 ARX       0.451300
     50 H8          -7.9430    -0.5310    -1.7070 h5         1 ARX       0.099800
     51 HO3         -5.1290    -2.1420     2.0830 ho         1 ARX       0.425000
     52 HO2         -6.9510    -0.7640     3.6610 ho         1 ARX       0.424000
     53 H3          -6.3970    -1.5930     0.3760 h1         1 ARX       0.070700
     54 H5          -8.1590    -2.0800     1.9670 h1         1 ARX       0.080700
     55 H4          -6.0900     1.1520     1.6730 h1         1 ARX       0.083700
     56 H1          -9.4310     0.3260     1.6040 h2         1 ARX       0.128700
     57 H25          1.8350     2.0660    -2.0630 hc         1 ARX       0.062700
     58 H25A         1.6850     0.3780    -2.5220 hc         1 ARX       0.062700
     59 H24          0.7030    -0.1240    -0.2510 hc         1 ARX       0.051200
     60 H24A         0.7850     1.5840     0.1380 hc         1 ARX       0.051200
     61 H23         -0.7100     2.0750    -1.8320 hc         1 ARX       0.044700
     62 H23A        -0.8130     0.3550    -2.1550 hc         1 ARX       0.044700
     63 H22         -1.8020    -0.0030     0.1280 hc         1 ARX       0.045200
     64 H22A        -1.7160     1.7270     0.4210 hc         1 ARX       0.045200
     65 H21         -3.2420     2.1230    -1.5290 h1         1 ARX       0.055200
     66 H21A        -3.3250     0.3900    -1.8060 h1         1 ARX       0.055200
     67 HN20        -4.0130     1.1440     0.9140 hn         1 ARX       0.321500
     68 HN27         3.8700     2.5540    -1.4540 hn         1 ARX       0.324500
     69 H29          5.3380     0.9770     0.4870 h1         1 ARX       0.072700
     70 H37          7.1940     2.5310    -0.0850 hc         1 ARX       0.068200
     71 H37A         6.2090     3.2650    -1.3320 hc         1 ARX       0.068200
     72 H38          4.5460     3.9970     0.3920 hc         1 ARX       0.043700
     73 H38A         5.4630     3.1580     1.6330 hc         1 ARX       0.043700
     74 H39          7.4330     4.6450     1.1500 h1         1 ARX       0.055200
     75 H39A         6.4860     5.4870    -0.0620 h1         1 ARX       0.055200
     76 HN40         5.4100     5.3280     2.6610 hn         1 ARX       0.404800
     77 HN43         5.2690     7.1480     3.8580 hn         1 ARX       0.396800
     78 HN4A         6.3170     8.4230     3.6000 hn         1 ARX       0.396800
     79 HN42         7.4870     8.4720     1.6290 hn         1 ARX       0.380400
     80 HN31         7.3010    -0.0910     0.1150 hn         1 ARX       0.319500
     81 H32          7.5080    -1.6330    -2.3320 h1         1 ARX       0.079700
     82 H78          9.6840    -2.3240    -1.3810 hc         1 ARX       0.057200
     83 H78A         9.4960    -1.1810    -0.0650 hc         1 ARX       0.057200
     84 H79          7.4460    -2.4040     0.7020 hc         1 ARX       0.050200
     85 H79A         7.5830    -3.4990    -0.6630 hc         1 ARX       0.050200
     86 H85          9.7860    -4.2860     0.1680 h1         1 ARX       0.051700
     87 H85A         9.7150    -3.1500     1.5010 h1         1 ARX       0.051700
     88 HN77         7.4790    -4.4210     1.9770 hn         1 ARX       0.414800
     89 HN93         7.2000    -6.5530     2.8050 hn         1 ARX       0.396800
     90 HN9A         8.5290    -7.3120     3.4640 hn         1 ARX       0.396800
     91 HN94        10.5630    -6.6890     2.7180 hn         1 ARX       0.377400
     92 HN76        10.0390    -0.0200    -4.1870 hn         1 ARX       0.316000
     93 HN7A         9.1380    -1.4590    -3.9230 hn         1 ARX       0.316000
     94 O3          -5.3290    -1.2010     2.1060 oh         1 ARX      -0.591800
     95 C11         -5.5240     0.7650    -0.3750 c          1 ARX       0.666100
     96 N20         -4.2530     1.0210    -0.0570 ns         1 ARX      -0.565900
     97 O5          -5.9350     0.6670    -1.5220 o          1 ARX      -0.593100
@<TRIPOS>BOND
     1     1     2 ar  
     2     1     6 ar  
     3     2     3 ar  
     4     2    47 1   
     5     3     4 ar  
     6     4     5 ar  
     7     4    10 1   
     8     5     6 ar  
     9     5     8 1   
    10     6     7 1   
    11     7    48 1   
    12     7    49 1   
    13     8     9 2   
    14     9    10 1   
    15     9    50 1   
    16    10    16 1   
    17    11    14 1   
    18    11    52 1   
    19    12    15 1   
    20    12    16 1   
    21    13    14 1   
    22    13    15 1   
    23    13    53 1   
    24    13    94 1   
    25    14    16 1   
    26    14    54 1   
    27    15    55 1   
    28    15    95 1   
    29    16    56 1   
    30    17    18 2   
    31    17    19 1   
    32    17    24 1   
    33    19    20 1   
    34    19    57 1   
    35    19    58 1   
    36    20    21 1   
    37    20    59 1   
    38    20    60 1   
    39    21    22 1   
    40    21    61 1   
    41    21    62 1   
    42    22    23 1   
    43    22    63 1   
    44    22    64 1   
    45    23    65 1   
    46    23    66 1   
    47    23    96 1   
    48    24    25 1   
    49    24    68 1   
    50    25    26 1   
    51    25    33 1   
    52    25    69 1   
    53    26    27 1   
    54    26    70 1   
    55    26    71 1   
    56    27    28 1   
    57    27    72 1   
    58    27    73 1   
    59    28    29 1   
    60    28    74 1   
    61    28    75 1   
    62    29    30 1   
    63    29    76 1   
    64    30    31 1   
    65    30    32 2   
    66    31    77 1   
    67    31    78 1   
    68    32    79 1   
    69    33    34 2   
    70    33    35 1   
    71    35    36 1   
    72    35    80 1   
    73    36    37 1   
    74    36    44 1   
    75    36    81 1   
    76    37    38 1   
    77    37    82 1   
    78    37    83 1   
    79    38    39 1   
    80    38    84 1   
    81    38    85 1   
    82    39    40 1   
    83    39    86 1   
    84    39    87 1   
    85    40    41 1   
    86    40    88 1   
    87    41    42 1   
    88    41    43 2   
    89    42    89 1   
    90    42    90 1   
    91    43    91 1   
    92    44    45 2   
    93    44    46 1   
    94    46    92 1   
    95    46    93 1   
    96    51    94 1   
    97    67    96 1   
    98    95    96 1   
    99    95    97 2   
@<TRIPOS>SUBSTRUCTURE
     1 ARX         1 TEMP              0 ****  ****    0 ROOT
