@<TRIPOS>MOLECULE
ARZ
   40    43     1     0     0
SMALL
No Charge or Current Charge


@<TRIPOS>ATOM
      1 NAA         -6.4520     0.1470    16.6350 n8         1 ARZ      -1.013100
      2 OAB         -6.0130     6.2020    14.0800 o          1 ARZ      -0.561100
      3 OAC         -4.0700    -0.1470    17.0420 o          1 ARZ      -0.519500
      4 OAD         -5.3910     1.7550    18.1190 o          1 ARZ      -0.519500
      5 CAE         -3.5780     8.7320    10.1110 c6         1 ARZ      -0.070733
      6 CAF         -5.6550     7.7570     9.0270 c6         1 ARZ      -0.070733
      7 CAG         -5.8730     9.6190    10.7410 c6         1 ARZ      -0.070733
      8 CAH         -4.3470     6.3910    10.7200 c6         1 ARZ      -0.060733
      9 CAI         -4.5300     8.2510    12.4120 c6         1 ARZ      -0.060733
     10 CAJ         -6.6380     7.2610    11.3110 c6         1 ARZ      -0.060733
     11 NAK         -3.9850     2.5620    13.4710 nc         1 ARZ      -0.412000
     12 NAL         -4.0380     1.5830    14.4520 nc         1 ARZ      -0.186000
     13 SAN         -5.4520     3.5720    15.3750 ss         1 ARZ      -0.061800
     14 CAO         -5.3610     5.9200    13.0860 c          1 ARZ       0.611100
     15 CAP         -4.6700     3.6440    13.8090 cd         1 ARZ       0.526300
     16 CAQ         -4.7630     1.9690    15.4990 cd         1 ARZ       0.081300
     17 CAR         -4.2350     7.4330     9.5690 c6         1 ARZ      -0.059367
     18 CAS         -4.4430     9.3030    11.2690 c6         1 ARZ      -0.059367
     19 CAT         -6.5300     8.3230    10.1790 c6         1 ARZ      -0.059367
     20 CAU         -5.2270     6.9420    11.9100 c6         1 ARZ      -0.118000
     21 SAV         -5.0480     0.9380    16.9540 sy         1 ARZ       1.136200
     22 HNAA        -6.1490    -0.8190    16.7480 hn         1 ARZ       0.488000
     23 HNAB        -6.9600     0.3130    17.5010 hn         1 ARZ       0.488000
     24 HAEA        -3.4820     9.4750     9.3070 hc         1 ARZ       0.045700
     25 HAF         -5.5910     8.4840     8.2050 hc         1 ARZ       0.045700
     26 HAFA        -6.1170     6.8530     8.6070 hc         1 ARZ       0.045700
     27 HAG         -5.8250    10.3880     9.9570 hc         1 ARZ       0.045700
     28 HAGA        -6.4910    10.0380    11.5470 hc         1 ARZ       0.045700
     29 HAH         -4.7780     5.4630    10.3160 hc         1 ARZ       0.050700
     30 HAHA        -3.3350     6.1410    11.0700 hc         1 ARZ       0.050700
     31 HAI         -3.5260     8.0270    12.7980 hc         1 ARZ       0.050700
     32 HAIA        -5.0930     8.6770    13.2550 hc         1 ARZ       0.050700
     33 HAJ         -7.3050     7.6380    12.1000 hc         1 ARZ       0.050700
     34 HAJA        -7.1080     6.3450    10.9270 hc         1 ARZ       0.050700
     35 HAR         -3.6180     7.0220     8.7580 hc         1 ARZ       0.057700
     36 HAS         -3.9810    10.2230    11.6520 hc         1 ARZ       0.057700
     37 HAT         -7.5330     8.5550     9.7970 hc         1 ARZ       0.057700
     38 NAM         -4.7200     4.7090    12.9470 ns         1 ARZ      -0.470400
     39 HAE         -2.5590     8.5240    10.4650 hc         1 ARZ       0.045700
     40 HNAM        -4.2170     4.5990    12.0810 hn         1 ARZ       0.351500
@<TRIPOS>BOND
     1     1    21 1   
     2     1    22 1   
     3     1    23 1   
     4     2    14 2   
     5     3    21 2   
     6     4    21 2   
     7     5    17 1   
     8     5    18 1   
     9     5    24 1   
    10     5    39 1   
    11     6    17 1   
    12     6    19 1   
    13     6    25 1   
    14     6    26 1   
    15     7    18 1   
    16     7    19 1   
    17     7    27 1   
    18     7    28 1   
    19     8    17 1   
    20     8    20 1   
    21     8    29 1   
    22     8    30 1   
    23     9    18 1   
    24     9    20 1   
    25     9    31 1   
    26     9    32 1   
    27    10    19 1   
    28    10    20 1   
    29    10    33 1   
    30    10    34 1   
    31    11    12 1   
    32    11    15 2   
    33    12    16 2   
    34    13    15 1   
    35    13    16 1   
    36    14    20 1   
    37    14    38 1   
    38    15    38 1   
    39    16    21 1   
    40    17    35 1   
    41    18    36 1   
    42    19    37 1   
    43    38    40 1   
@<TRIPOS>SUBSTRUCTURE
     1 ARZ         1 TEMP              0 ****  ****    0 ROOT
