@<TRIPOS>MOLECULE
ARZ
   40    43     1     0     0
SMALL
abcg2


@<TRIPOS>ATOM
      1 NAA         -5.8080    -0.1380    16.3050 n8         1 ARZ      -1.013100
      2 OAB         -6.6200     5.4570    13.4210 o          1 ARZ      -0.561100
      3 OAC         -4.0990     0.8360    17.7970 o          1 ARZ      -0.519500
      4 OAD         -6.3870     1.8450    17.6600 o          1 ARZ      -0.519500
      5 CAE         -3.6600     8.2900     9.9440 c6         1 ARZ      -0.070733
      6 CAF         -6.0370     8.0070     9.1930 c6         1 ARZ      -0.070733
      7 CAG         -5.4880     9.6200    11.0340 c6         1 ARZ      -0.070733
      8 CAH         -4.8910     6.1650    10.4540 c6         1 ARZ      -0.060733
      9 CAI         -4.3340     7.7930    12.3060 c6         1 ARZ      -0.060733
     10 CAJ         -6.7130     7.4960    11.5550 c6         1 ARZ      -0.060733
     11 NAK         -3.3430     3.2320    14.2980 nc         1 ARZ      -0.412000
     12 NAL         -3.5250     2.3100    15.2790 nc         1 ARZ      -0.186000
     13 SAN         -5.7930     3.5000    15.0550 ss         1 ARZ      -0.061800
     14 CAO         -5.5710     5.6800    12.8360 c          1 ARZ       0.611100
     15 CAP         -4.4330     3.9280    14.0670 cd         1 ARZ       0.526300
     16 CAQ         -4.7240     2.3290    15.7650 cd         1 ARZ       0.081300
     17 CAR         -4.7010     7.2880     9.4240 c6         1 ARZ      -0.059367
     18 CAS         -4.1510     8.9050    11.2630 c6         1 ARZ      -0.059367
     19 CAT         -6.5240     8.6110    10.5170 c6         1 ARZ      -0.059367
     20 CAU         -5.3790     6.7670    11.7960 c6         1 ARZ      -0.118000
     21 SAV         -5.2580     1.2070    17.0340 sy         1 ARZ       1.136200
     22 HNAA        -6.6370     0.0090    15.7380 hn         1 ARZ       0.488000
     23 HNAB        -5.0880    -0.6700    15.8260 hn         1 ARZ       0.488000
     24 HAEA        -3.5000     9.0770     9.2030 hc         1 ARZ       0.045700
     25 HAF         -5.9110     8.7960     8.4460 hc         1 ARZ       0.045700
     26 HAFA        -6.7790     7.3040     8.8050 hc         1 ARZ       0.045700
     27 HAG         -5.3590    10.4290    10.3090 hc         1 ARZ       0.045700
     28 HAGA        -5.8370    10.0710    11.9680 hc         1 ARZ       0.045700
     29 HAH         -5.6260     5.4400    10.0950 hc         1 ARZ       0.050700
     30 HAHA        -3.9460     5.6320    10.5870 hc         1 ARZ       0.050700
     31 HAI         -3.3750     7.3030    12.4920 hc         1 ARZ       0.050700
     32 HAIA        -4.6760     8.2140    13.2550 hc         1 ARZ       0.050700
     33 HAJ         -7.0740     7.9170    12.4950 hc         1 ARZ       0.050700
     34 HAJA        -7.4630     6.7810    11.2100 hc         1 ARZ       0.050700
     35 HAR         -4.3510     6.8460     8.4870 hc         1 ARZ       0.057700
     36 HAS         -3.4090     9.6160    11.6360 hc         1 ARZ       0.057700
     37 HAT         -7.4820     9.1140    10.3620 hc         1 ARZ       0.057700
     38 NAM         -4.4560     4.9200    13.1300 ns         1 ARZ      -0.470400
     39 HAE         -2.7010     7.7870    10.1000 hc         1 ARZ       0.045700
     40 HNAM        -3.5780     5.0970    12.6600 hn         1 ARZ       0.351500
@<TRIPOS>BOND
     1     1    21 1   
     2     1    22 1   
     3     1    23 1   
     4     2    14 2   
     5     3    21 2   
     6     4    21 2   
     7     5    17 1   
     8     5    18 1   
     9     5    24 1   
    10     5    39 1   
    11     6    17 1   
    12     6    19 1   
    13     6    25 1   
    14     6    26 1   
    15     7    18 1   
    16     7    19 1   
    17     7    27 1   
    18     7    28 1   
    19     8    17 1   
    20     8    20 1   
    21     8    29 1   
    22     8    30 1   
    23     9    18 1   
    24     9    20 1   
    25     9    31 1   
    26     9    32 1   
    27    10    19 1   
    28    10    20 1   
    29    10    33 1   
    30    10    34 1   
    31    11    12 1   
    32    11    15 2   
    33    12    16 2   
    34    13    15 1   
    35    13    16 1   
    36    14    20 1   
    37    14    38 1   
    38    15    38 1   
    39    16    21 1   
    40    17    35 1   
    41    18    36 1   
    42    19    37 1   
    43    38    40 1   
@<TRIPOS>SUBSTRUCTURE
     1 ARZ         1 TEMP              0 ****  ****    0 ROOT
