@<TRIPOS>MOLECULE
AS0
   68    72     1     0     0
SMALL
bcc


@<TRIPOS>ATOM
      1 C1          -0.5880    -0.4390     8.9080 c3         1 AS0       0.117700
      2 C3          -1.5430     0.8790     7.2450 c3         1 AS0       0.107400
      3 C4          -1.4750     2.2290     6.5190 c5         1 AS0       0.170800
      4 C5          -2.7150     2.3420     5.5820 c5         1 AS0      -0.109400
      5 C6          -2.2480     1.9820     4.1570 c5         1 AS0      -0.068400
      6 O2          -0.5810     0.8070     8.2620 os         1 AS0      -0.392600
      7 C7          -0.8010     1.5320     4.3380 c5         1 AS0      -0.067700
      8 C8           0.1070     1.5670     3.1170 c6         1 AS0      -0.015500
      9 C9          -0.4810     0.7300     1.9890 c6         1 AS0      -0.071400
     10 C10          0.5340     0.5330     0.8770 c6         1 AS0      -0.050200
     11 C11          1.7380    -0.1580     1.4280 ce         1 AS0      -0.001200
     12 C12          2.3480    -1.1470     0.7390 cf         1 AS0      -0.262200
     13 C13          3.4720    -1.9100     1.2660 c          1 AS0       0.575300
     14 O14          4.0060    -2.7980     0.6210 o          1 AS0      -0.530100
     15 C15          3.8880    -1.5830     2.6750 c6         1 AS0      -0.179400
     16 C16          3.6560    -0.1150     3.0140 c6         1 AS0      -0.029200
     17 C17          2.2410     0.3080     2.7210 ce         1 AS0      -0.106200
     18 C18          1.5080     1.1320     3.5010 c2         1 AS0      -0.064400
     19 C19          2.0830     1.7160     4.7770 c6         1 AS0       0.013800
     20 C20          1.0550     1.7880     5.9320 c6         1 AS0      -0.047400
     21 C21         -0.2900     2.3660     5.5150 c5         1 AS0      -0.019000
     22 C22         -0.1470     3.8500     5.1430 c3         1 AS0      -0.077100
     23 C23          2.8510     3.0100     4.5320 ca         1 AS0      -0.049300
     24 C24          3.4810     3.6440     5.6010 ca         1 AS0      -0.137000
     25 C25          4.2220     4.7990     5.4180 ca         1 AS0      -0.096500
     26 C26          4.3640     5.3640     4.1510 ca         1 AS0      -0.145900
     27 C27          5.1510     6.5870     4.0100 ce         1 AS0       0.424800
     28 N28          5.3070     7.1450     2.8810 n2         1 AS0      -0.435200
     29 O29          6.0710     8.2710     2.9520 oh         1 AS0      -0.376500
     30 C30          3.7510     4.7260     3.0740 ca         1 AS0      -0.096500
     31 C31          3.0160     3.5690     3.2640 ca         1 AS0      -0.137000
     32 O32         -1.3860     3.2750     7.4600 os         1 AS0      -0.390600
     33 C33         -2.4230     3.3620     8.4050 c3         1 AS0       0.126700
     34 H11         -0.3630    -1.2620     8.2180 h1         1 AS0       0.028367
     35 H12A        -1.5550    -0.6530     9.3790 h1         1 AS0       0.028367
     36 H13          0.1760    -0.4230     9.6840 h1         1 AS0       0.028367
     37 H31A        -1.4200     0.0580     6.5250 h1         1 AS0       0.024200
     38 H32         -2.5510     0.7500     7.6690 h1         1 AS0       0.024200
     39 H51         -3.1050     3.3610     5.6120 hc         1 AS0       0.050700
     40 H52         -3.5290     1.6930     5.9150 hc         1 AS0       0.050700
     41 H61         -2.8680     1.2100     3.7020 hc         1 AS0       0.045200
     42 H62         -2.2980     2.8540     3.5000 hc         1 AS0       0.045200
     43 H7          -0.8170     0.4830     4.6650 hc         1 AS0       0.048700
     44 H8           0.1690     2.6040     2.7580 hc         1 AS0       0.065700
     45 H91         -1.3790     1.2160     1.6030 hc         1 AS0       0.048700
     46 H92         -0.7890    -0.2470     2.3780 hc         1 AS0       0.048700
     47 H101         0.8350     1.5100     0.4790 hc         1 AS0       0.057200
     48 H102         0.1130    -0.0330     0.0450 hc         1 AS0       0.057200
     49 H12          1.9750    -1.4300    -0.2400 ha         1 AS0       0.146000
     50 H151         3.2940    -2.2150     3.3450 hc         1 AS0       0.070200
     51 H152         4.9330    -1.8580     2.8240 hc         1 AS0       0.070200
     52 H161         4.3330     0.4990     2.4110 hc         1 AS0       0.056200
     53 H162         3.9350     0.0560     4.0510 hc         1 AS0       0.056200
     54 H19          2.8410     1.0230     5.1490 hc         1 AS0       0.060700
     55 H201         0.9190     0.7630     6.2810 hc         1 AS0       0.056700
     56 H202         1.4830     2.3390     6.7710 hc         1 AS0       0.056700
     57 H221         0.2780     4.4190     5.9680 hc         1 AS0       0.040033
     58 H222         0.5180     3.9930     4.2950 hc         1 AS0       0.040033
     59 H223        -1.1010     4.3090     4.8810 hc         1 AS0       0.040033
     60 H24          3.4010     3.2320     6.6000 ha         1 AS0       0.135500
     61 H25          4.7000     5.2650     6.2710 ha         1 AS0       0.139000
     62 H27          5.5990     6.9980     4.9160 h4         1 AS0       0.005800
     63 HO29         6.1120     8.5900     2.0440 ho         1 AS0       0.431000
     64 H30          3.8500     5.1330     2.0760 ha         1 AS0       0.139000
     65 H31          2.5630     3.1000     2.4000 ha         1 AS0       0.135500
     66 H331        -2.3980     2.5540     9.1420 h1         1 AS0       0.028700
     67 H332        -3.4170     3.3730     7.9440 h1         1 AS0       0.028700
     68 H333        -2.2940     4.3040     8.9380 h1         1 AS0       0.028700
@<TRIPOS>BOND
     1     1     6 1   
     2     1    34 1   
     3     1    35 1   
     4     1    36 1   
     5     2     3 1   
     6     2     6 1   
     7     2    37 1   
     8     2    38 1   
     9     3     4 1   
    10     3    21 1   
    11     3    32 1   
    12     4     5 1   
    13     4    39 1   
    14     4    40 1   
    15     5     7 1   
    16     5    41 1   
    17     5    42 1   
    18     7     8 1   
    19     7    21 1   
    20     7    43 1   
    21     8     9 1   
    22     8    18 1   
    23     8    44 1   
    24     9    10 1   
    25     9    45 1   
    26     9    46 1   
    27    10    11 1   
    28    10    47 1   
    29    10    48 1   
    30    11    12 2   
    31    11    17 1   
    32    12    13 1   
    33    12    49 1   
    34    13    14 2   
    35    13    15 1   
    36    15    16 1   
    37    15    50 1   
    38    15    51 1   
    39    16    17 1   
    40    16    52 1   
    41    16    53 1   
    42    17    18 2   
    43    18    19 1   
    44    19    20 1   
    45    19    23 1   
    46    19    54 1   
    47    20    21 1   
    48    20    55 1   
    49    20    56 1   
    50    21    22 1   
    51    22    57 1   
    52    22    58 1   
    53    22    59 1   
    54    23    24 ar  
    55    23    31 ar  
    56    24    25 ar  
    57    24    60 1   
    58    25    26 ar  
    59    25    61 1   
    60    26    27 1   
    61    26    30 ar  
    62    27    28 2   
    63    27    62 1   
    64    28    29 1   
    65    29    63 1   
    66    30    31 ar  
    67    30    64 1   
    68    31    65 1   
    69    32    33 1   
    70    33    66 1   
    71    33    67 1   
    72    33    68 1   
@<TRIPOS>SUBSTRUCTURE
     1 AS0         1 TEMP              0 ****  ****    0 ROOT
