@<TRIPOS>MOLECULE
AS0
   68    72     1     0     0
SMALL
No Charge or Current Charge


@<TRIPOS>ATOM
      1 C1          -0.6910    -0.3620     9.2050 c3         1 AS0       0.140900
      2 C3          -1.6530     0.8390     7.3340 c3         1 AS0       0.130600
      3 C4          -1.5820     2.2000     6.5340 c5         1 AS0       0.194000
      4 C5          -2.8300     2.4000     5.5890 c5         1 AS0      -0.109400
      5 C6          -2.3600     1.9730     4.1550 c5         1 AS0      -0.068400
      6 O2          -0.6940     0.8370     8.4140 os         1 AS0      -0.439000
      7 C7          -0.9060     1.4570     4.3630 c5         1 AS0      -0.067700
      8 C8           0.0240     1.4020     3.1210 c6         1 AS0      -0.015500
      9 C9          -0.5510     0.4390     2.0540 c6         1 AS0      -0.071400
     10 C10          0.4160     0.3190     0.8680 c6         1 AS0      -0.050200
     11 C11          1.7650    -0.2150     1.3400 ce         1 AS0      -0.001200
     12 C12          2.4440    -1.1250     0.5870 cf         1 AS0      -0.312200
     13 C13          3.7330    -1.7090     1.0090 c          1 AS0       0.575300
     14 O14          4.4010    -2.4150     0.2660 o          1 AS0      -0.530100
     15 C15          4.1890    -1.3580     2.4240 c6         1 AS0      -0.179400
     16 C16          3.7890     0.0790     2.8200 c6         1 AS0      -0.029200
     17 C17          2.2720     0.3300     2.6240 ce         1 AS0      -0.106200
     18 C18          1.4910     1.0540     3.4880 c2         1 AS0      -0.064400
     19 C19          2.0460     1.6870     4.7960 c6         1 AS0       0.013800
     20 C20          0.9940     1.8270     5.9490 c6         1 AS0      -0.047400
     21 C21         -0.3850     2.3810     5.4970 c5         1 AS0      -0.019000
     22 C22         -0.1950     3.8860     5.0700 c3         1 AS0      -0.077100
     23 C23          2.8960     2.9580     4.5730 ca         1 AS0      -0.049300
     24 C24          3.6800     3.4610     5.6300 ca         1 AS0      -0.119000
     25 C25          4.4750     4.6060     5.4570 ca         1 AS0      -0.078500
     26 C26          4.5110     5.2730     4.2170 ca         1 AS0      -0.145900
     27 C27          5.3690     6.4910     4.0630 ce         1 AS0       0.424800
     28 N28          5.4490     7.1450     2.9390 n2         1 AS0      -0.336700
     29 O29          6.3000     8.2670     2.9640 oh         1 AS0      -0.514000
     30 C30          3.7390     4.7640     3.1500 ca         1 AS0      -0.078500
     31 C31          2.9450     3.6190     3.3250 ca         1 AS0      -0.119000
     32 O32         -1.5280     3.3370     7.4540 os         1 AS0      -0.437000
     33 C33         -2.5840     3.5080     8.4220 c3         1 AS0       0.149900
     34 H11         -0.4490    -1.2360     8.5860 h1         1 AS0       0.028367
     35 H12A        -1.6710    -0.5250     9.6700 h1         1 AS0       0.028367
     36 H13          0.0590    -0.2900    10.0020 h1         1 AS0       0.028367
     37 H31A        -1.4820    -0.0150     6.6690 h1         1 AS0       0.024200
     38 H32         -2.6650     0.7260     7.7420 h1         1 AS0       0.024200
     39 H51         -3.1770     3.4390     5.5770 hc         1 AS0       0.050700
     40 H52         -3.6860     1.8000     5.9170 hc         1 AS0       0.050700
     41 H61         -3.0070     1.1990     3.7270 hc         1 AS0       0.045200
     42 H62         -2.3900     2.8230     3.4630 hc         1 AS0       0.045200
     43 H7          -0.9370     0.4130     4.6940 hc         1 AS0       0.048700
     44 H8           0.0370     2.3990     2.6630 hc         1 AS0       0.065700
     45 H91         -1.5260     0.7970     1.6980 hc         1 AS0       0.048700
     46 H92         -0.7180    -0.5570     2.4900 hc         1 AS0       0.048700
     47 H101         0.5520     1.2980     0.3880 hc         1 AS0       0.057200
     48 H102        -0.0190    -0.3450     0.1080 hc         1 AS0       0.057200
     49 H12          2.0480    -1.4560    -0.3710 ha         1 AS0       0.196000
     50 H151         3.6330    -2.0260     3.0950 hc         1 AS0       0.070200
     51 H152         5.2600    -1.5650     2.5460 hc         1 AS0       0.070200
     52 H161         4.3440     0.7930     2.1960 hc         1 AS0       0.056200
     53 H162         4.1330     0.2590     3.8430 hc         1 AS0       0.056200
     54 H19          2.7430     0.9570     5.2230 hc         1 AS0       0.060700
     55 H201         0.8560     0.8200     6.3610 hc         1 AS0       0.056700
     56 H202         1.3880     2.4260     6.7800 hc         1 AS0       0.056700
     57 H221         0.2870     4.4620     5.8680 hc         1 AS0       0.040033
     58 H222         0.4270     4.0000     4.1800 hc         1 AS0       0.040033
     59 H223        -1.1410     4.3900     4.8460 hc         1 AS0       0.040033
     60 H24          3.6810     2.9600     6.5950 ha         1 AS0       0.117500
     61 H25          5.0680     4.9740     6.2920 ha         1 AS0       0.121000
     62 H27          5.9290     6.8060     4.9470 h4         1 AS0       0.005800
     63 HO29         6.2540     8.6490     2.0530 ho         1 AS0       0.470000
     64 H30          3.7490     5.2530     2.1780 ha         1 AS0       0.121000
     65 H31          2.3660     3.2570     2.4800 ha         1 AS0       0.117500
     66 H331        -2.6190     2.6670     9.1250 h1         1 AS0       0.028700
     67 H332        -3.5630     3.5950     7.9340 h1         1 AS0       0.028700
     68 H333        -2.4160     4.4230     9.0040 h1         1 AS0       0.028700
@<TRIPOS>BOND
     1     1     6 1   
     2     1    34 1   
     3     1    35 1   
     4     1    36 1   
     5     2     3 1   
     6     2     6 1   
     7     2    37 1   
     8     2    38 1   
     9     3     4 1   
    10     3    21 1   
    11     3    32 1   
    12     4     5 1   
    13     4    39 1   
    14     4    40 1   
    15     5     7 1   
    16     5    41 1   
    17     5    42 1   
    18     7     8 1   
    19     7    21 1   
    20     7    43 1   
    21     8     9 1   
    22     8    18 1   
    23     8    44 1   
    24     9    10 1   
    25     9    45 1   
    26     9    46 1   
    27    10    11 1   
    28    10    47 1   
    29    10    48 1   
    30    11    12 2   
    31    11    17 1   
    32    12    13 1   
    33    12    49 1   
    34    13    14 2   
    35    13    15 1   
    36    15    16 1   
    37    15    50 1   
    38    15    51 1   
    39    16    17 1   
    40    16    52 1   
    41    16    53 1   
    42    17    18 2   
    43    18    19 1   
    44    19    20 1   
    45    19    23 1   
    46    19    54 1   
    47    20    21 1   
    48    20    55 1   
    49    20    56 1   
    50    21    22 1   
    51    22    57 1   
    52    22    58 1   
    53    22    59 1   
    54    23    24 ar  
    55    23    31 ar  
    56    24    25 ar  
    57    24    60 1   
    58    25    26 ar  
    59    25    61 1   
    60    26    27 1   
    61    26    30 ar  
    62    27    28 2   
    63    27    62 1   
    64    28    29 1   
    65    29    63 1   
    66    30    31 ar  
    67    30    64 1   
    68    31    65 1   
    69    32    33 1   
    70    33    66 1   
    71    33    67 1   
    72    33    68 1   
@<TRIPOS>SUBSTRUCTURE
     1 AS0         1 TEMP              0 ****  ****    0 ROOT
