@<TRIPOS>MOLECULE
AS1
   35    34     1     0     0
SMALL
abcg2


@<TRIPOS>ATOM
      1 O51          6.9100     0.2750    -0.7690 o          1 AS1      -0.749000
      2 O52          6.5380    -1.3440     0.7170 o          1 AS1      -0.749000
      3 C5           6.2720    -0.2590     0.1600 c          1 AS1       0.726000
      4 C4           4.9890     0.4580     0.6310 c3         1 AS1       0.025500
      5 N4           5.1090     1.8940     0.4350 n8         1 AS1      -1.000200
      6 C3           3.7910    -0.1930    -0.0820 c3         1 AS1      -0.099400
      7 C2           2.4340     0.3220     0.3780 c3         1 AS1      -0.093400
      8 C1           1.2900    -0.3640    -0.3540 c3         1 AS1       0.226800
      9 N2           0.0160     0.1330     0.1070 nu         1 AS1      -0.910400
     10 C           -1.1430    -0.1840    -0.5610 c2         1 AS1       0.831100
     11 N3          -1.0830    -0.7430    -1.7160 n2         1 AS1      -0.973100
     12 N1          -2.2780     0.2480     0.0790 nu         1 AS1      -0.876400
     13 CA          -3.5680    -0.3130    -0.2550 c3         1 AS1       0.088500
     14 CG          -3.6740    -1.8350     0.0090 c          1 AS1       0.694000
     15 OG2         -2.8570    -2.3400     0.7980 o          1 AS1      -0.759000
     16 OG1         -4.6100    -2.4170    -0.5780 o          1 AS1      -0.759000
     17 CB          -4.6400     0.4290     0.5380 c3         1 AS1      -0.189400
     18 CD          -4.6940     1.9360     0.2260 c          1 AS1       0.718000
     19 OD1         -4.7300     2.2520    -0.9810 o          1 AS1      -0.769500
     20 OD2         -4.7270     2.7200     1.1960 o          1 AS1      -0.769500
     21 H4           4.8700     0.2740     1.7050 h1         1 AS1       0.038700
     22 HN41         5.3410     2.0670    -0.5350 hn         1 AS1       0.377000
     23 HN42         4.2220     2.3510     0.6090 hn         1 AS1       0.377000
     24 H31          3.8940    -0.0370    -1.1620 hc         1 AS1       0.042200
     25 H32          3.8330    -1.2750     0.0800 hc         1 AS1       0.042200
     26 H21          2.3340     0.1620     1.4580 hc         1 AS1       0.025200
     27 H22          2.3530     1.4000     0.2130 hc         1 AS1       0.025200
     28 H11          1.3730    -0.1680    -1.4240 h1         1 AS1       0.037200
     29 H12          1.3740    -1.4530    -0.2340 h1         1 AS1       0.037200
     30 HN2         -0.0650     0.1990     1.1100 hn         1 AS1       0.448000
     31 HN3         -2.0050    -0.8530    -2.1180 hn         1 AS1       0.387400
     32 HN1         -2.1620     0.4380     1.0640 hn         1 AS1       0.446000
     33 HA          -3.7720    -0.1190    -1.3120 h1         1 AS1       0.064700
     34 HB1         -5.6090    -0.0130     0.2870 hc         1 AS1       0.020700
     35 HB2         -4.4900     0.2630     1.6110 hc         1 AS1       0.020700
@<TRIPOS>BOND
     1     1     3 1   
     2     2     3 1   
     3     3     4 1   
     4     4     5 1   
     5     4     6 1   
     6     4    21 1   
     7     5    22 1   
     8     5    23 1   
     9     6     7 1   
    10     6    24 1   
    11     6    25 1   
    12     7     8 1   
    13     7    26 1   
    14     7    27 1   
    15     8     9 1   
    16     8    28 1   
    17     8    29 1   
    18     9    10 1   
    19     9    30 1   
    20    10    11 2   
    21    10    12 1   
    22    11    31 1   
    23    12    13 1   
    24    12    32 1   
    25    13    14 1   
    26    13    17 1   
    27    13    33 1   
    28    14    15 1   
    29    14    16 1   
    30    17    18 1   
    31    17    34 1   
    32    17    35 1   
    33    18    19 1   
    34    18    20 1   
@<TRIPOS>SUBSTRUCTURE
     1 AS1         1 TEMP              0 ****  ****    0 ROOT
