@<TRIPOS>MOLECULE
AS1
   35    34     1     0     0
SMALL
No Charge or Current Charge


@<TRIPOS>ATOM
      1 O51          6.8620     0.1860    -0.8430 o          1 AS1      -0.749000
      2 O52          6.9900    -0.7340     1.0980 o          1 AS1      -0.749000
      3 C5           6.3920    -0.0710     0.2600 c          1 AS1       0.726000
      4 C4           4.9860     0.5580     0.6550 c3         1 AS1       0.025500
      5 N4           4.8910     2.0630     0.6320 n8         1 AS1      -1.000200
      6 C3           3.8440    -0.0610    -0.1970 c3         1 AS1      -0.099400
      7 C2           2.4150     0.2300     0.3280 c3         1 AS1      -0.093400
      8 C1           1.3190    -0.4650    -0.5080 c3         1 AS1       0.226800
      9 N2          -0.0110    -0.1620     0.0320 nu         1 AS1      -0.910400
     10 C           -1.1530    -0.6360    -0.4760 c2         1 AS1       0.831100
     11 N3          -1.2250    -1.3850    -1.4760 n2         1 AS1      -0.973100
     12 N1          -2.2130    -0.1820     0.1990 nu         1 AS1      -0.876400
     13 CA          -3.6380    -0.2980    -0.2440 c3         1 AS1       0.088500
     14 CG          -4.1550    -1.7920    -0.3750 c          1 AS1       0.694000
     15 OG2         -4.6270    -2.3640     0.6020 o          1 AS1      -0.759000
     16 OG1         -4.0640    -2.3280    -1.4720 o          1 AS1      -0.759000
     17 CB          -4.5360     0.5710     0.6780 c3         1 AS1      -0.189400
     18 CD          -4.2680     2.0640     0.4340 c          1 AS1       0.718000
     19 OD1         -4.8980     2.6270    -0.4480 o          1 AS1      -0.769500
     20 OD2         -3.4140     2.6180     1.1110 o          1 AS1      -0.769500
     21 H4           4.8030     0.2520     1.6950 h1         1 AS1       0.038700
     22 HN41         5.1340     2.3900    -0.3110 hn         1 AS1       0.377000
     23 HN42         3.9080     2.3330     0.7410 hn         1 AS1       0.377000
     24 H31          3.9320     0.2840    -1.2350 hc         1 AS1       0.042200
     25 H32          3.9860    -1.1490    -0.2200 hc         1 AS1       0.042200
     26 H21          2.3410    -0.1070     1.3700 hc         1 AS1       0.025200
     27 H22          2.2320     1.3110     0.3230 hc         1 AS1       0.025200
     28 H11          1.3870    -0.1210    -1.5500 h1         1 AS1       0.037200
     29 H12          1.4900    -1.5500    -0.4970 h1         1 AS1       0.037200
     30 HN2         -0.0600     0.0310     1.0230 hn         1 AS1       0.448000
     31 HN3         -2.2290    -1.5930    -1.5830 hn         1 AS1       0.387400
     32 HN1         -1.9990     0.6470     0.7400 hn         1 AS1       0.446000
     33 HA          -3.7230     0.1230    -1.2560 h1         1 AS1       0.064700
     34 HB1         -5.5660     0.3330     0.3870 hc         1 AS1       0.020700
     35 HB2         -4.2980     0.2900     1.7120 hc         1 AS1       0.020700
@<TRIPOS>BOND
     1     1     3 1   
     2     2     3 1   
     3     3     4 1   
     4     4     5 1   
     5     4     6 1   
     6     4    21 1   
     7     5    22 1   
     8     5    23 1   
     9     6     7 1   
    10     6    24 1   
    11     6    25 1   
    12     7     8 1   
    13     7    26 1   
    14     7    27 1   
    15     8     9 1   
    16     8    28 1   
    17     8    29 1   
    18     9    10 1   
    19     9    30 1   
    20    10    11 2   
    21    10    12 1   
    22    11    31 1   
    23    12    13 1   
    24    12    32 1   
    25    13    14 1   
    26    13    17 1   
    27    13    33 1   
    28    14    15 1   
    29    14    16 1   
    30    17    18 1   
    31    17    34 1   
    32    17    35 1   
    33    18    19 1   
    34    18    20 1   
@<TRIPOS>SUBSTRUCTURE
     1 AS1         1 TEMP              0 ****  ****    0 ROOT
