@<TRIPOS>MOLECULE
AS2
   14    13     1     0     0
SMALL
bcc


@<TRIPOS>ATOM
      1 O           -1.3270     6.5580   -65.4490 o          1 AS2      -0.834800
      2 C           -1.1910     5.4580   -66.0170 c          1 AS2       0.909600
      3 OXT         -0.5680     5.2260   -67.0720 o          1 AS2      -0.834800
      4 CA          -1.8960     4.2390   -65.3630 c3         1 AS2       0.017500
      5 N           -2.5040     4.4680   -64.0600 n8         1 AS2      -0.897800
      6 CB          -0.9410     3.0410   -65.2590 c3         1 AS2      -0.173400
      7 CG          -1.6530     1.8890   -64.6170 c          1 AS2       0.596900
      8 OD2         -2.2960     1.0670   -65.2270 o          1 AS2      -0.572100
      9 HA          -2.7030     3.9400   -66.0440 h1         1 AS2       0.049700
     10 HN          -1.7840     4.7850   -63.4190 hn         1 AS2       0.328800
     11 HNA         -3.1390     5.2530   -64.1340 hn         1 AS2       0.328800
     12 HB          -0.5930     2.7610   -66.2520 hc         1 AS2       0.060700
     13 HBA         -0.0730     3.3120   -64.6500 hc         1 AS2       0.060700
     14 HG          -1.5730     1.8290   -63.5180 h4         1 AS2      -0.038800
@<TRIPOS>BOND
     1     1     2 1   
     2     2     3 1   
     3     2     4 1   
     4     4     5 1   
     5     4     6 1   
     6     4     9 1   
     7     5    10 1   
     8     5    11 1   
     9     6     7 1   
    10     6    12 1   
    11     6    13 1   
    12     7     8 2   
    13     7    14 1   
@<TRIPOS>SUBSTRUCTURE
     1 AS2         1 TEMP              0 ****  ****    0 ROOT
