@<TRIPOS>MOLECULE
AS2
   14    13     1     0     0
SMALL
No Charge or Current Charge


@<TRIPOS>ATOM
      1 O           -0.4290     6.1470   -65.5090 o          1 AS2      -0.729500
      2 C           -1.1870     5.4080   -66.1240 c          1 AS2       0.699000
      3 OXT         -1.5150     5.6060   -67.2860 o          1 AS2      -0.729500
      4 CA          -1.8840     4.2190   -65.3380 c3         1 AS2       0.017500
      5 N           -2.5690     4.5810   -64.0480 n8         1 AS2      -1.008200
      6 CB          -0.8890     3.0610   -65.0820 c3         1 AS2      -0.173400
      7 CG          -1.6090     1.7780   -64.6620 c          1 AS2       0.596900
      8 OD2         -2.0860     0.9790   -65.4640 o          1 AS2      -0.572100
      9 HA          -2.6620     3.8330   -66.0130 h1         1 AS2       0.049700
     10 HN          -1.9010     5.1010   -63.4640 hn         1 AS2       0.384000
     11 HNA         -3.2960     5.2830   -64.2410 hn         1 AS2       0.384000
     12 HB          -0.3310     2.8660   -66.0040 hc         1 AS2       0.060700
     13 HBA         -0.2100     3.3680   -64.2780 hc         1 AS2       0.060700
     14 HG          -1.6720     1.5960   -63.5660 h4         1 AS2      -0.038800
@<TRIPOS>BOND
     1     1     2 1   
     2     2     3 1   
     3     2     4 1   
     4     4     5 1   
     5     4     6 1   
     6     4     9 1   
     7     5    10 1   
     8     5    11 1   
     9     6     7 1   
    10     6    12 1   
    11     6    13 1   
    12     7     8 2   
    13     7    14 1   
@<TRIPOS>SUBSTRUCTURE
     1 AS2         1 TEMP              0 ****  ****    0 ROOT
