@<TRIPOS>MOLECULE
AS3
   25    25     1     0     0
SMALL
bcc


@<TRIPOS>ATOM
      1 N8          -1.6160    -2.6090    -0.2240 nv         1 AS3      -0.943500
      2 C1          -1.2290    -1.3000    -0.1670 ca         1 AS3       0.664200
      3 N6           0.0470    -1.0360    -0.4270 nb         1 AS3      -0.752000
      4 C5           0.4520     0.2360    -0.4350 ca         1 AS3       0.465600
      5 C9           1.9140     0.4640    -0.6880 c3         1 AS3      -0.128700
      6 C10          2.7810     0.0330     0.4960 c3         1 AS3      -0.071400
      7 C11          4.2630     0.2550     0.2370 c3         1 AS3      -0.090100
      8 C4          -0.4060     1.2930    -0.1850 ca         1 AS3      -0.299300
      9 C3          -1.7500     1.0280     0.0970 ca         1 AS3       0.000700
     10 C7          -2.7100     2.1490     0.3570 c3         1 AS3      -0.053800
     11 C2          -2.1650    -0.2880     0.1090 ca         1 AS3      -0.316300
     12 HN81        -2.4590    -2.8660     0.2620 hn         1 AS3       0.411300
     13 HN82        -0.8780    -3.2910    -0.1510 hn         1 AS3       0.411300
     14 H91          2.0910     1.5220    -0.9020 hc         1 AS3       0.051700
     15 H92          2.2190    -0.0940    -1.5780 hc         1 AS3       0.051700
     16 H101         2.5940    -1.0220     0.7110 hc         1 AS3       0.044700
     17 H102         2.4730     0.5880     1.3870 hc         1 AS3       0.044700
     18 H111         4.4740     1.3070     0.0350 hc         1 AS3       0.031700
     19 H112         4.8670    -0.0450     1.0950 hc         1 AS3       0.031700
     20 H113         4.6040    -0.3210    -0.6250 hc         1 AS3       0.031700
     21 H4          -0.0360     2.3110    -0.2020 ha         1 AS3       0.138000
     22 H71         -2.9900     2.6350    -0.5800 hc         1 AS3       0.045700
     23 H72         -3.6250     1.7970     0.8330 hc         1 AS3       0.045700
     24 H73         -2.2650     2.9130     0.9940 hc         1 AS3       0.045700
     25 H2          -3.1950    -0.5440     0.3270 ha         1 AS3       0.136000
@<TRIPOS>BOND
     1     1     2 1   
     2     1    12 1   
     3     1    13 1   
     4     2     3 ar  
     5     2    11 ar  
     6     3     4 ar  
     7     4     5 1   
     8     4     8 ar  
     9     5     6 1   
    10     5    14 1   
    11     5    15 1   
    12     6     7 1   
    13     6    16 1   
    14     6    17 1   
    15     7    18 1   
    16     7    19 1   
    17     7    20 1   
    18     8     9 ar  
    19     8    21 1   
    20     9    10 1   
    21     9    11 ar  
    22    10    22 1   
    23    10    23 1   
    24    10    24 1   
    25    11    25 1   
@<TRIPOS>SUBSTRUCTURE
     1 AS3         1 TEMP              0 ****  ****    0 ROOT
