@<TRIPOS>MOLECULE
AS3
   25    25     1     0     0
SMALL
No Charge or Current Charge


@<TRIPOS>ATOM
      1 N8          -1.7650    -2.6060    -0.4840 nv         1 AS3      -1.053900
      2 C1          -1.3750    -1.3380    -0.3400 ca         1 AS3       0.598900
      3 N6          -0.0800    -1.2030    -0.5830 nb         1 AS3      -0.752000
      4 C5           0.4380     0.0400    -0.4660 ca         1 AS3       0.400300
      5 C9           1.9280     0.1890    -0.7430 c3         1 AS3      -0.128700
      6 C10          2.7670     0.2860     0.5510 c3         1 AS3      -0.071400
      7 C11          4.2760     0.4460     0.2830 c3         1 AS3      -0.090100
      8 C4          -0.3390     1.1560    -0.0990 ca         1 AS3      -0.216000
      9 C3          -1.7090     0.9900     0.1600 ca         1 AS3       0.000700
     10 C7          -2.5860     2.1660     0.5560 c3         1 AS3      -0.053800
     11 C2          -2.2360    -0.3030     0.0320 ca         1 AS3      -0.233000
     12 HN81        -2.6150    -2.8890    -0.0080 hn         1 AS3       0.466500
     13 HN82        -1.0160    -3.2860    -0.5240 hn         1 AS3       0.466500
     14 H91          2.0960     1.0890    -1.3470 hc         1 AS3       0.051700
     15 H92          2.2910    -0.6530    -1.3450 hc         1 AS3       0.051700
     16 H101         2.6040    -0.6160     1.1560 hc         1 AS3       0.044700
     17 H102         2.4180     1.1370     1.1490 hc         1 AS3       0.044700
     18 H111         4.4730     1.3590    -0.2910 hc         1 AS3       0.031700
     19 H112         4.8270     0.5090     1.2290 hc         1 AS3       0.031700
     20 H113         4.6630    -0.4100    -0.2830 hc         1 AS3       0.031700
     21 H4           0.1240     2.1350    -0.0180 ha         1 AS3       0.120000
     22 H71         -2.9910     2.6670    -0.3310 hc         1 AS3       0.045700
     23 H72         -3.4310     1.8440     1.1750 hc         1 AS3       0.045700
     24 H73         -2.0190     2.9080     1.1320 hc         1 AS3       0.045700
     25 H2          -3.2880    -0.5000     0.2140 ha         1 AS3       0.118000
@<TRIPOS>BOND
     1     1     2 1   
     2     1    12 1   
     3     1    13 1   
     4     2     3 ar  
     5     2    11 ar  
     6     3     4 ar  
     7     4     5 1   
     8     4     8 ar  
     9     5     6 1   
    10     5    14 1   
    11     5    15 1   
    12     6     7 1   
    13     6    16 1   
    14     6    17 1   
    15     7    18 1   
    16     7    19 1   
    17     7    20 1   
    18     8     9 ar  
    19     8    21 1   
    20     9    10 1   
    21     9    11 ar  
    22    10    22 1   
    23    10    23 1   
    24    10    24 1   
    25    11    25 1   
@<TRIPOS>SUBSTRUCTURE
     1 AS3         1 TEMP              0 ****  ****    0 ROOT
