@<TRIPOS>MOLECULE
AS4
   54    57     1     0     0
SMALL
No Charge or Current Charge


@<TRIPOS>ATOM
      1 C1          -1.0230    -1.2070     0.3590 c5         1 AS4      -0.046700
      2 C5          -1.3260     1.3000     0.4660 c6         1 AS4      -0.102400
      3 C6          -2.3400     0.0180    -1.5430 c          1 AS4       0.609900
      4 C7           2.5470     0.4420    -0.3580 c6         1 AS4      -0.004800
      5 C8           3.3600    -0.8230     0.0020 c2         1 AS4      -0.034400
      6 C9           4.6080    -0.7780     0.5290 ce         1 AS4      -0.321200
      7 C10          5.3190     0.4800     0.8600 c          1 AS4       0.575300
      8 C15          2.6870     0.5970    -1.9120 c3         1 AS4      -0.075100
      9 C16         -3.3580    -2.0110     0.3970 c5         1 AS4      -0.067400
     10 C17         -3.2110    -0.5120     0.8380 c5         1 AS4      -0.166700
     11 C18         -4.5030     0.3190     0.5680 c          1 AS4       0.566100
     12 C19         -4.9900     1.1870     1.7670 c3         1 AS4       0.059600
     13 C20         -1.8890    -2.4810     0.1000 c5         1 AS4      -0.067400
     14 C           -1.9740    -0.0330    -0.0070 c5         1 AS4      -0.157000
     15 C2           0.3950    -1.0950    -0.2800 c6         1 AS4      -0.043700
     16 C3           1.0440     0.2750     0.1370 c6         1 AS4      -0.036700
     17 C4           0.0900     1.5060    -0.1540 c6         1 AS4       0.176300
     18 O           -0.0510     1.7860    -1.5510 oh         1 AS4      -0.655000
     19 O1          -2.0420    -0.7840    -2.4230 o          1 AS4      -0.502100
     20 O2           6.3400     0.4970     1.5340 o          1 AS4      -0.529100
     21 C11          4.7050     1.7530     0.2840 c6         1 AS4      -0.181400
     22 C12          3.1620     1.7020     0.3520 c6         1 AS4      -0.065400
     23 C13          2.7180    -2.1600    -0.3580 c6         1 AS4      -0.052200
     24 C14          1.2840    -2.2790     0.1840 c6         1 AS4      -0.069400
     25 O3          -5.0970     0.3140    -0.5060 o          1 AS4      -0.475100
     26 O4          -6.1320     2.0300     1.4700 oh         1 AS4      -0.626000
     27 H1          -0.8150    -1.1650     1.4360 hc         1 AS4       0.036700
     28 H51         -1.9770     2.1500     0.2230 hc         1 AS4       0.048200
     29 H52         -1.2330     1.2960     1.5620 hc         1 AS4       0.048200
     30 H6          -2.9130     0.9310    -1.8190 h4         1 AS4      -0.014800
     31 H9           5.1450    -1.6900     0.7830 ha         1 AS4       0.196000
     32 H151         3.7230     0.4440    -2.2370 hc         1 AS4       0.043033
     33 H152         2.0750    -0.1280    -2.4580 hc         1 AS4       0.043033
     34 H153         2.4000     1.5970    -2.2550 hc         1 AS4       0.043033
     35 H161        -3.9800    -2.1210    -0.5000 hc         1 AS4       0.058700
     36 H162        -3.8320    -2.6160     1.1790 hc         1 AS4       0.058700
     37 H17         -2.9830    -0.4390     1.9090 hc         1 AS4       0.058700
     38 H191        -5.2270     0.5010     2.5910 h1         1 AS4       0.035200
     39 H192        -4.1390     1.8020     2.0910 h1         1 AS4       0.035200
     40 H201        -1.7860    -2.8570    -0.9230 hc         1 AS4       0.056200
     41 H202        -1.5900    -3.3040     0.7600 hc         1 AS4       0.056200
     42 H2           0.3030    -1.1310    -1.3720 hc         1 AS4       0.083700
     43 H3           1.1110     0.2310     1.2330 hc         1 AS4       0.046700
     44 H4           0.5220     2.3890     0.3390 h1         1 AS4       0.033700
     45 HO          -0.2580     2.7420    -1.6270 ho         1 AS4       0.441000
     46 H111         4.9870     1.7870    -0.7760 hc         1 AS4       0.070700
     47 H112         5.1300     2.6370     0.7760 hc         1 AS4       0.070700
     48 H121         2.7530     2.6250    -0.0810 hc         1 AS4       0.044700
     49 H122         2.8720     1.7110     1.4120 hc         1 AS4       0.044700
     50 H131         2.7110    -2.2820    -1.4500 hc         1 AS4       0.057200
     51 H132         3.3210    -2.9920     0.0320 hc         1 AS4       0.057200
     52 H141         0.8510    -3.2320    -0.1490 hc         1 AS4       0.045200
     53 H142         1.3170    -2.3180     1.2820 hc         1 AS4       0.045200
     54 HO4         -6.3560     2.5270     2.2910 ho         1 AS4       0.447000
@<TRIPOS>BOND
     1     1    13 1   
     2     1    14 1   
     3     1    15 1   
     4     1    27 1   
     5     2    14 1   
     6     2    17 1   
     7     2    28 1   
     8     2    29 1   
     9     3    14 1   
    10     3    19 2   
    11     3    30 1   
    12     4     5 1   
    13     4     8 1   
    14     4    16 1   
    15     4    22 1   
    16     5     6 2   
    17     5    23 1   
    18     6     7 1   
    19     6    31 1   
    20     7    20 2   
    21     7    21 1   
    22     8    32 1   
    23     8    33 1   
    24     8    34 1   
    25     9    10 1   
    26     9    13 1   
    27     9    35 1   
    28     9    36 1   
    29    10    11 1   
    30    10    14 1   
    31    10    37 1   
    32    11    12 1   
    33    11    25 2   
    34    12    26 1   
    35    12    38 1   
    36    12    39 1   
    37    13    40 1   
    38    13    41 1   
    39    15    16 1   
    40    15    24 1   
    41    15    42 1   
    42    16    17 1   
    43    16    43 1   
    44    17    18 1   
    45    17    44 1   
    46    18    45 1   
    47    21    22 1   
    48    21    46 1   
    49    21    47 1   
    50    22    48 1   
    51    22    49 1   
    52    23    24 1   
    53    23    50 1   
    54    23    51 1   
    55    24    52 1   
    56    24    53 1   
    57    26    54 1   
@<TRIPOS>SUBSTRUCTURE
     1 AS4         1 TEMP              0 ****  ****    0 ROOT
