@<TRIPOS>MOLECULE
AS4
   54    57     1     0     0
SMALL
abcg2


@<TRIPOS>ATOM
      1 C1          -0.9860    -1.2180     0.3430 c5         1 AS4      -0.046700
      2 C5          -1.2660     1.2310     0.6170 c6         1 AS4      -0.102400
      3 C6          -2.2680     0.1740    -1.3930 c          1 AS4       0.609900
      4 C7           2.4820     0.4360    -0.3650 c6         1 AS4      -0.004800
      5 C8           3.2850    -0.7930     0.0150 c2         1 AS4      -0.034400
      6 C9           4.4900    -0.7320     0.6070 ce         1 AS4      -0.321200
      7 C10          5.2170     0.5130     0.8350 c          1 AS4       0.575300
      8 C15          2.5910     0.5690    -1.8980 c3         1 AS4      -0.075100
      9 C16         -3.2850    -2.0100     0.4100 c5         1 AS4      -0.067400
     10 C17         -3.1910    -0.5230     0.8040 c5         1 AS4      -0.166700
     11 C18         -4.4370     0.2830     0.5210 c          1 AS4       0.566100
     12 C19         -4.8360     1.2360     1.6140 c3         1 AS4       0.059600
     13 C20         -1.8390    -2.4660     0.1040 c5         1 AS4      -0.067400
     14 C           -1.9110    -0.0330     0.0670 c5         1 AS4      -0.157000
     15 C2           0.3840    -1.0970    -0.3100 c6         1 AS4      -0.043700
     16 C3           1.0250     0.2260     0.1530 c6         1 AS4      -0.036700
     17 C4           0.1020     1.4390    -0.0390 c6         1 AS4       0.176300
     18 O           -0.0720     1.6760    -1.4230 oh         1 AS4      -0.655000
     19 O1          -2.1720    -0.6460    -2.2710 o          1 AS4      -0.502100
     20 O2           6.2950     0.5310     1.4050 o          1 AS4      -0.529100
     21 C11          4.5900     1.7480     0.2520 c6         1 AS4      -0.181400
     22 C12          3.0720     1.6800     0.3160 c6         1 AS4      -0.065400
     23 C13          2.6980    -2.1150    -0.3660 c6         1 AS4      -0.052200
     24 C14          1.2610    -2.2700     0.1120 c6         1 AS4      -0.069400
     25 O3          -5.0650     0.1760    -0.5050 o          1 AS4      -0.475100
     26 O4          -5.9350     1.9940     1.2190 oh         1 AS4      -0.626000
     27 H1          -0.7980    -1.1730     1.4260 hc         1 AS4       0.036700
     28 H51         -1.8850     2.1190     0.4450 hc         1 AS4       0.048200
     29 H52         -1.1550     1.1390     1.7010 hc         1 AS4       0.048200
     30 H6          -2.7060     1.1670    -1.6070 h4         1 AS4      -0.014800
     31 H9           5.0030    -1.6510     0.8730 ha         1 AS4       0.196000
     32 H151         3.6290     0.4610    -2.2170 hc         1 AS4       0.043033
     33 H152         2.0120    -0.1940    -2.4160 hc         1 AS4       0.043033
     34 H153         2.2350     1.5380    -2.2350 hc         1 AS4       0.043033
     35 H161        -3.9230    -2.1300    -0.4650 hc         1 AS4       0.058700
     36 H162        -3.7400    -2.5870     1.2150 hc         1 AS4       0.058700
     37 H17         -2.9670    -0.4440     1.8730 hc         1 AS4       0.058700
     38 H191        -5.0280     0.6270     2.5120 h1         1 AS4       0.035200
     39 H192        -3.9530     1.8460     1.8590 h1         1 AS4       0.035200
     40 H201        -1.7510    -2.8210    -0.9220 hc         1 AS4       0.056200
     41 H202        -1.5290    -3.2850     0.7530 hc         1 AS4       0.056200
     42 H2           0.2810    -1.1100    -1.3990 hc         1 AS4       0.083700
     43 H3           1.1270     0.1350     1.2450 hc         1 AS4       0.046700
     44 H4           0.5660     2.3100     0.4390 h1         1 AS4       0.033700
     45 HO          -0.4990     2.5330    -1.5300 ho         1 AS4       0.441000
     46 H111         4.9280     1.8290    -0.7880 hc         1 AS4       0.070700
     47 H112         4.9630     2.6340     0.7680 hc         1 AS4       0.070700
     48 H121         2.6580     2.5830    -0.1370 hc         1 AS4       0.044700
     49 H122         2.7680     1.6900     1.3680 hc         1 AS4       0.044700
     50 H131         2.7220    -2.1930    -1.4590 hc         1 AS4       0.057200
     51 H132         3.3200    -2.9270     0.0140 hc         1 AS4       0.057200
     52 H141         0.8530    -3.2060    -0.2760 hc         1 AS4       0.045200
     53 H142         1.2500    -2.3530     1.2040 hc         1 AS4       0.045200
     54 HO4         -6.1570     2.5930     1.9380 ho         1 AS4       0.447000
@<TRIPOS>BOND
     1     1    13 1   
     2     1    14 1   
     3     1    15 1   
     4     1    27 1   
     5     2    14 1   
     6     2    17 1   
     7     2    28 1   
     8     2    29 1   
     9     3    14 1   
    10     3    19 2   
    11     3    30 1   
    12     4     5 1   
    13     4     8 1   
    14     4    16 1   
    15     4    22 1   
    16     5     6 2   
    17     5    23 1   
    18     6     7 1   
    19     6    31 1   
    20     7    20 2   
    21     7    21 1   
    22     8    32 1   
    23     8    33 1   
    24     8    34 1   
    25     9    10 1   
    26     9    13 1   
    27     9    35 1   
    28     9    36 1   
    29    10    11 1   
    30    10    14 1   
    31    10    37 1   
    32    11    12 1   
    33    11    25 2   
    34    12    26 1   
    35    12    38 1   
    36    12    39 1   
    37    13    40 1   
    38    13    41 1   
    39    15    16 1   
    40    15    24 1   
    41    15    42 1   
    42    16    17 1   
    43    16    43 1   
    44    17    18 1   
    45    17    44 1   
    46    18    45 1   
    47    21    22 1   
    48    21    46 1   
    49    21    47 1   
    50    22    48 1   
    51    22    49 1   
    52    23    24 1   
    53    23    50 1   
    54    23    51 1   
    55    24    52 1   
    56    24    53 1   
    57    26    54 1   
@<TRIPOS>SUBSTRUCTURE
     1 AS4         1 TEMP              0 ****  ****    0 ROOT
