@<TRIPOS>MOLECULE
AS5
   56    57     1     0     0
SMALL
No Charge or Current Charge


@<TRIPOS>ATOM
      1 O7B          3.5340     2.4940    -1.1690 o          1 AS5      -0.596100
      2 C7B          3.6570     2.3430     0.0370 c          1 AS5       0.606100
      3 C8B          4.1300     3.4530     0.9630 c3         1 AS5      -0.182100
      4 N2B          3.3690     1.1530     0.6550 ns         1 AS5      -0.500900
      5 C2B          2.9040    -0.0770    -0.0340 c6         1 AS5       0.097700
      6 C3B          3.0490    -1.3330     0.8830 c6         1 AS5       0.165300
      7 O3B          4.4200    -1.5140     1.2900 oh         1 AS5      -0.628000
      8 C4B          2.5390    -2.6130     0.1520 c6         1 AS5       0.105300
      9 C5B          1.0720    -2.3610    -0.3210 c6         1 AS5       0.145300
     10 C6B          0.4700    -3.5720    -1.1070 c3         1 AS5       0.167600
     11 O6B         -0.8890    -3.3570    -1.5370 oh         1 AS5      -0.699000
     12 O5B          1.0010    -1.1780    -1.1590 os         1 AS5      -0.439000
     13 C1B          1.4230     0.0460    -0.5180 c6         1 AS5       0.378300
     14 O4A          0.5390     0.3550     0.5910 os         1 AS5      -0.501000
     15 C4A         -0.8550     0.6340     0.2720 c6         1 AS5       0.154300
     16 C3A         -1.7820     0.1880     1.4590 c6         1 AS5       0.147300
     17 O3A         -1.5930    -1.2040     1.7930 oh         1 AS5      -0.697000
     18 C2A         -3.2840     0.4680     1.1380 c6         1 AS5       0.047700
     19 N2A         -3.7880    -0.4460     0.0880 ns         1 AS5      -0.494900
     20 C7A         -5.1080    -0.6790    -0.2120 c          1 AS5       0.600100
     21 O7A         -6.0230    -0.1060     0.3610 o          1 AS5      -0.618100
     22 C8A         -5.3420    -1.7060    -1.3110 c3         1 AS5      -0.177100
     23 C5A         -1.1430     2.1430    -0.0430 c6         1 AS5       0.145300
     24 C6A         -0.3240     2.7440    -1.2320 c3         1 AS5       0.166600
     25 O6A         -0.7310     4.0790    -1.5940 oh         1 AS5      -0.710000
     26 O5A         -2.5530     2.3030    -0.3500 os         1 AS5      -0.425000
     27 C1A         -3.4380     1.9630     0.7400 c6         1 AS5       0.141600
     28 O4B          3.4240    -2.9290    -0.9430 oh         1 AS5      -0.693000
     29 H8B1         4.3450     4.3850     0.4290 hc         1 AS5       0.061367
     30 H8B2         3.3830     3.6020     1.7520 hc         1 AS5       0.061367
     31 H8B3         4.9990     3.1000     1.5290 hc         1 AS5       0.061367
     32 H2B          3.5110     1.1150     1.6570 hn         1 AS5       0.317500
     33 HA           3.5290    -0.2250    -0.9260 h1         1 AS5       0.127700
     34 H1B          1.3880     0.8510    -1.2630 h2         1 AS5       0.079700
     35 H3B          4.4080    -2.0130     2.1360 ho         1 AS5       0.439000
     36 H4B          2.5300    -3.4440     0.8720 h1         1 AS5       0.031700
     37 H5B          0.4430    -2.2070     0.5660 h1         1 AS5       0.070700
     38 HB           4.3350    -2.7660    -0.5990 ho         1 AS5       0.501000
     39 H6B1         1.1060    -3.7730    -1.9790 h1         1 AS5       0.023700
     40 H6B2         0.5190    -4.4570    -0.4580 h1         1 AS5       0.023700
     41 H6B         -1.1400    -4.1330    -2.0890 ho         1 AS5       0.501000
     42 H4A         -1.1380     0.0420    -0.6100 h1         1 AS5       0.069700
     43 H3A         -1.5100     0.8040     2.3290 h1         1 AS5       0.044700
     44 H5A         -0.9120     2.7420     0.8510 h1         1 AS5       0.052700
     45 HC          -2.1280    -1.3840     2.5990 ho         1 AS5       0.508000
     46 H2A         -3.8770     0.2940     2.0480 h1         1 AS5       0.068700
     47 HD          -3.1110    -1.0090    -0.4140 hn         1 AS5       0.327500
     48 H1A1        -4.4740     2.1690     0.4350 h1         1 AS5       0.066200
     49 H1A2        -3.2120     2.6080     1.6020 h1         1 AS5       0.066200
     50 H8A1        -6.4050    -1.8660    -1.5210 hc         1 AS5       0.061033
     51 H8A2        -4.7940    -1.3980    -2.2090 hc         1 AS5       0.061033
     52 H8A3        -4.8370    -2.6410    -1.0400 hc         1 AS5       0.061033
     53 H6A1         0.7330     2.7620    -0.9380 h1         1 AS5       0.030200
     54 H6A2        -0.4220     2.0710    -2.0950 h1         1 AS5       0.030200
     55 H6A         -0.1980     4.3410    -2.3810 ho         1 AS5       0.506000
     56 H3B1         2.4220    -1.1770     1.7740 h1         1 AS5       0.041700
@<TRIPOS>BOND
     1     1     2 2   
     2     2     3 1   
     3     2     4 1   
     4     3    29 1   
     5     3    30 1   
     6     3    31 1   
     7     4     5 1   
     8     4    32 1   
     9     5     6 1   
    10     5    13 1   
    11     5    33 1   
    12     6     7 1   
    13     6     8 1   
    14     6    56 1   
    15     7    35 1   
    16     8     9 1   
    17     8    28 1   
    18     8    36 1   
    19     9    10 1   
    20     9    12 1   
    21     9    37 1   
    22    10    11 1   
    23    10    39 1   
    24    10    40 1   
    25    11    41 1   
    26    12    13 1   
    27    13    14 1   
    28    13    34 1   
    29    14    15 1   
    30    15    16 1   
    31    15    23 1   
    32    15    42 1   
    33    16    17 1   
    34    16    18 1   
    35    16    43 1   
    36    17    45 1   
    37    18    19 1   
    38    18    27 1   
    39    18    46 1   
    40    19    20 1   
    41    19    47 1   
    42    20    21 2   
    43    20    22 1   
    44    22    50 1   
    45    22    51 1   
    46    22    52 1   
    47    23    24 1   
    48    23    26 1   
    49    23    44 1   
    50    24    25 1   
    51    24    53 1   
    52    24    54 1   
    53    25    55 1   
    54    26    27 1   
    55    27    48 1   
    56    27    49 1   
    57    28    38 1   
@<TRIPOS>SUBSTRUCTURE
     1 AS5         1 TEMP              0 ****  ****    0 ROOT
