@<TRIPOS>MOLECULE
AS5
   56    57     1     0     0
SMALL
bcc


@<TRIPOS>ATOM
      1 O7B          4.3120     1.9580    -1.3530 o          1 AS5      -0.596100
      2 C7B          3.6430     2.2010    -0.3600 c          1 AS5       0.673100
      3 C8B          3.5580     3.5810     0.2460 c3         1 AS5      -0.182100
      4 N2B          2.8810     1.2810     0.2660 ns         1 AS5      -0.567900
      5 C2B          2.7180    -0.0820    -0.1650 c6         1 AS5       0.097700
      6 C3B          3.0860    -1.0730     0.9370 c6         1 AS5       0.142100
      7 O3B          4.4210    -0.8450     1.2960 oh         1 AS5      -0.565800
      8 C4B          2.8370    -2.4960     0.4390 c6         1 AS5       0.082100
      9 C5B          1.3790    -2.6240    -0.0070 c6         1 AS5       0.122100
     10 C6B          1.1050    -3.9890    -0.6030 c3         1 AS5       0.144400
     11 O6B         -0.2750    -4.1430    -0.8280 oh         1 AS5      -0.576800
     12 O5B          1.0610    -1.6490    -0.9900 os         1 AS5      -0.392600
     13 C1B          1.2740    -0.3260    -0.6280 c6         1 AS5       0.331900
     14 O4A          0.4450     0.0980     0.4150 os         1 AS5      -0.454600
     15 C4A         -0.8890     0.4590     0.1150 c6         1 AS5       0.131100
     16 C3A         -1.7980    -0.2540     1.1150 c6         1 AS5       0.124100
     17 O3A         -1.7460    -1.6250     0.8410 oh         1 AS5      -0.574800
     18 C2A         -3.2290     0.2970     1.0800 c6         1 AS5       0.047700
     19 N2A         -3.8960    -0.1110    -0.1380 ns         1 AS5      -0.561900
     20 C7A         -5.2300    -0.0610    -0.2910 c          1 AS5       0.667100
     21 O7A         -5.9780     0.3920     0.5660 o          1 AS5      -0.618100
     22 C8A         -5.7500    -0.5880    -1.6050 c3         1 AS5      -0.177100
     23 C5A         -1.0370     1.9860     0.2490 c6         1 AS5       0.122100
     24 C6A         -0.3130     2.7260    -0.8560 c3         1 AS5       0.143400
     25 O6A         -0.3330     4.1040    -0.5720 oh         1 AS5      -0.587800
     26 O5A         -2.3890     2.3730     0.1940 os         1 AS5      -0.378600
     27 C1A         -3.1650     1.8110     1.2210 c6         1 AS5       0.118400
     28 O4B          3.7440    -2.7660    -0.6050 oh         1 AS5      -0.570800
     29 H8B1         4.4030     4.1870    -0.0690 hc         1 AS5       0.061367
     30 H8B2         2.6430     4.0720    -0.0940 hc         1 AS5       0.061367
     31 H8B3         3.5260     3.5520     1.3350 hc         1 AS5       0.061367
     32 H2B          2.3670     1.5710     1.0830 hn         1 AS5       0.317500
     33 HA           3.3760    -0.2360    -1.0210 h1         1 AS5       0.127700
     34 H1B          1.0800     0.2520    -1.5400 h2         1 AS5       0.079700
     35 H3B          4.6320    -1.4050     2.0500 ho         1 AS5       0.400000
     36 H4B          2.9870    -3.1890     1.2790 h1         1 AS5       0.031700
     37 H5B          0.7380    -2.4980     0.8730 h1         1 AS5       0.070700
     38 HB           3.9370    -3.7070    -0.6170 ho         1 AS5       0.402000
     39 H6B1         1.6790    -4.1040    -1.5310 h1         1 AS5       0.023700
     40 H6B2         1.4840    -4.7390     0.1050 h1         1 AS5       0.023700
     41 H6B         -0.4020    -4.9830    -1.2770 ho         1 AS5       0.402000
     42 H4A         -1.1520     0.1530    -0.9080 h1         1 AS5       0.069700
     43 H3A         -1.4110    -0.0280     2.1200 h1         1 AS5       0.044700
     44 H5A         -0.6000     2.2760     1.2200 h1         1 AS5       0.052700
     45 HC          -2.1860    -2.1000     1.5540 ho         1 AS5       0.409000
     46 H2A         -3.7730    -0.1050     1.9430 h1         1 AS5       0.068700
     47 HD          -3.3600    -0.5920    -0.8420 hn         1 AS5       0.327500
     48 H1A1        -4.1610     2.2480     1.1570 h1         1 AS5       0.066200
     49 H1A2        -2.7560     2.0600     2.2110 h1         1 AS5       0.066200
     50 H8A1        -6.5310    -1.3250    -1.4190 hc         1 AS5       0.061033
     51 H8A2        -6.2020     0.2290    -2.1680 hc         1 AS5       0.061033
     52 H8A3        -4.9820    -1.0460    -2.2250 hc         1 AS5       0.061033
     53 H6A1         0.7140     2.3540    -0.9200 h1         1 AS5       0.030200
     54 H6A2        -0.8010     2.4950    -1.8130 h1         1 AS5       0.030200
     55 H6A          0.0650     4.5670    -1.3130 ho         1 AS5       0.407000
     56 H3B1         2.4170    -0.9110     1.7950 h1         1 AS5       0.041700
@<TRIPOS>BOND
     1     1     2 2   
     2     2     3 1   
     3     2     4 1   
     4     3    29 1   
     5     3    30 1   
     6     3    31 1   
     7     4     5 1   
     8     4    32 1   
     9     5     6 1   
    10     5    13 1   
    11     5    33 1   
    12     6     7 1   
    13     6     8 1   
    14     6    56 1   
    15     7    35 1   
    16     8     9 1   
    17     8    28 1   
    18     8    36 1   
    19     9    10 1   
    20     9    12 1   
    21     9    37 1   
    22    10    11 1   
    23    10    39 1   
    24    10    40 1   
    25    11    41 1   
    26    12    13 1   
    27    13    14 1   
    28    13    34 1   
    29    14    15 1   
    30    15    16 1   
    31    15    23 1   
    32    15    42 1   
    33    16    17 1   
    34    16    18 1   
    35    16    43 1   
    36    17    45 1   
    37    18    19 1   
    38    18    27 1   
    39    18    46 1   
    40    19    20 1   
    41    19    47 1   
    42    20    21 2   
    43    20    22 1   
    44    22    50 1   
    45    22    51 1   
    46    22    52 1   
    47    23    24 1   
    48    23    26 1   
    49    23    44 1   
    50    24    25 1   
    51    24    53 1   
    52    24    54 1   
    53    25    55 1   
    54    26    27 1   
    55    27    48 1   
    56    27    49 1   
    57    28    38 1   
@<TRIPOS>SUBSTRUCTURE
     1 AS5         1 TEMP              0 ****  ****    0 ROOT
