@<TRIPOS>MOLECULE
AS6
   69    72     1     0     0
SMALL
bcc


@<TRIPOS>ATOM
      1 C1           6.6200     0.9650     1.4250 c3         1 AS6      -0.109100
      2 C2           5.5190     1.7800     0.7650 c3         1 AS6       0.253500
      3 C3           6.0390     2.4770    -0.4880 c3         1 AS6      -0.109100
      4 N1           4.3080     0.9880     0.5000 nh         1 AS6      -0.680700
      5 C4           3.0770     1.5520     0.5540 ca         1 AS6       0.761200
      6 C5           2.8620     2.9250     0.8260 ca         1 AS6      -0.480600
      7 C6           1.5540     3.3320     0.8850 ca         1 AS6       0.494200
      8 N2           0.5060     2.5300     0.6880 nb         1 AS6      -0.786000
      9 C7           0.8170     1.2720     0.4100 ca         1 AS6       0.943900
     10 N3          -0.1770     0.3650     0.1550 nu         1 AS6      -0.742300
     11 C8          -1.5550     0.4920     0.1530 ca         1 AS6       0.214600
     12 C9          -2.2760    -0.6420    -0.2410 ca         1 AS6      -0.223000
     13 C10         -3.6710    -0.6650    -0.2990 ca         1 AS6       0.188600
     14 C11         -4.3580     0.4980     0.0940 ca         1 AS6      -0.134000
     15 C12         -3.6260     1.5950     0.4970 ca         1 AS6      -0.196500
     16 C13         -2.2410     1.6440     0.5340 ca         1 AS6      -0.118000
     17 S1          -4.5120     3.0340     1.0530 sy         1 AS6       1.080300
     18 O1          -3.6940     4.2180     0.7970 o          1 AS6      -0.594800
     19 O2          -5.8690     2.9950     0.5080 o          1 AS6      -0.594800
     20 C14         -4.6110     2.7960     2.8130 c3         1 AS6      -0.225300
     21 N4          -4.3640    -1.7710    -0.7590 nh         1 AS6      -0.653000
     22 C15         -3.6190    -2.9610    -1.1290 c6         1 AS6       0.164300
     23 C16         -4.4890    -3.8970    -1.9470 c6         1 AS6       0.122900
     24 O3          -5.6840    -4.2310    -1.2830 os         1 AS6      -0.395600
     25 C17         -6.4240    -3.0640    -1.0140 c6         1 AS6       0.122900
     26 C18         -5.6480    -2.0920    -0.1480 c6         1 AS6       0.164300
     27 N5           2.0370     0.7510     0.3400 nb         1 AS6      -0.842000
     28 C19          4.4180    -0.3730     0.0870 ca         1 AS6       0.148600
     29 C20          4.5490    -1.3510     1.0650 ca         1 AS6      -0.090000
     30 C21          4.6890    -2.6930     0.7340 ca         1 AS6      -0.091300
     31 C22          4.8840    -3.7390     1.7950 c3         1 AS6       0.188700
     32 O4           4.0650    -3.4500     2.9040 oh         1 AS6      -0.591800
     33 C23          4.6710    -3.0400    -0.6120 ca         1 AS6      -0.118000
     34 C24          4.5180    -2.0680    -1.5870 ca         1 AS6      -0.133000
     35 C25          4.3840    -0.7190    -1.2660 ca         1 AS6      -0.056300
     36 C26          4.2020     0.2850    -2.3660 c3         1 AS6      -0.045800
     37 H11C         7.4570     1.6290     1.6410 hc         1 AS6       0.045367
     38 H12C         6.2940     0.5250     2.3670 hc         1 AS6       0.045367
     39 H13C         6.9910     0.1660     0.7820 hc         1 AS6       0.045367
     40 H2           5.2340     2.5440     1.4900 h1         1 AS6       0.057700
     41 H31C         6.5070     1.7670    -1.1710 hc         1 AS6       0.045367
     42 H32C         5.2460     2.9950    -1.0270 hc         1 AS6       0.045367
     43 H33C         6.7950     3.2150    -0.2160 hc         1 AS6       0.045367
     44 H5           3.6560     3.6400     0.9660 ha         1 AS6       0.151000
     45 H6           1.3260     4.3710     1.0960 h4         1 AS6       0.023100
     46 H3           0.1790    -0.5470    -0.0880 hn         1 AS6       0.454800
     47 H9          -1.7080    -1.5240    -0.5050 ha         1 AS6       0.132000
     48 H13         -1.7100     2.5300     0.8410 ha         1 AS6       0.194000
     49 H11         -5.4360     0.5540     0.0620 ha         1 AS6       0.157000
     50 H141        -3.6060     2.7280     3.2240 h1         1 AS6       0.101033
     51 H142        -5.1290     3.6590     3.2310 h1         1 AS6       0.101033
     52 H143        -5.1670     1.8860     3.0240 h1         1 AS6       0.101033
     53 H151        -2.7660    -2.6930    -1.7530 h1         1 AS6       0.049450
     54 H152        -3.2310    -3.4830    -0.2420 h1         1 AS6       0.049450
     55 H181        -5.5020    -2.5160     0.8550 h1         1 AS6       0.049450
     56 H182        -6.2580    -1.1990    -0.0370 h1         1 AS6       0.049450
     57 H161        -4.7080    -3.4280    -2.9170 h1         1 AS6       0.055200
     58 H162        -3.9430    -4.8220    -2.1370 h1         1 AS6       0.055200
     59 H171        -6.7100    -2.5660    -1.9520 h1         1 AS6       0.055200
     60 H172        -7.3370    -3.3590    -0.4970 h1         1 AS6       0.055200
     61 H20          4.5400    -1.0460     2.1040 ha         1 AS6       0.149000
     62 H221         4.6610    -4.7260     1.3710 h1         1 AS6       0.024700
     63 H222         5.9430    -3.7580     2.0830 h1         1 AS6       0.024700
     64 H23          4.7650    -4.0790    -0.9040 ha         1 AS6       0.129000
     65 H4           4.3520    -4.0020     3.6380 ho         1 AS6       0.404000
     66 H24          4.4870    -2.3660    -2.6290 ha         1 AS6       0.131000
     67 H261         5.1600     0.6750    -2.7110 hc         1 AS6       0.044700
     68 H262         3.7140    -0.1740    -3.2250 hc         1 AS6       0.044700
     69 H263         3.6000     1.1380    -2.0620 hc         1 AS6       0.044700
@<TRIPOS>BOND
     1     1     2 1   
     2     1    37 1   
     3     1    38 1   
     4     1    39 1   
     5     2     3 1   
     6     2     4 1   
     7     2    40 1   
     8     3    41 1   
     9     3    42 1   
    10     3    43 1   
    11     4     5 1   
    12     4    28 1   
    13     5     6 ar  
    14     5    27 ar  
    15     6     7 ar  
    16     6    44 1   
    17     7     8 ar  
    18     7    45 1   
    19     8     9 ar  
    20     9    10 1   
    21     9    27 ar  
    22    10    11 1   
    23    10    46 1   
    24    11    12 ar  
    25    11    16 ar  
    26    12    13 ar  
    27    12    47 1   
    28    13    14 ar  
    29    13    21 1   
    30    14    15 ar  
    31    14    49 1   
    32    15    16 ar  
    33    15    17 1   
    34    16    48 1   
    35    17    18 2   
    36    17    19 2   
    37    17    20 1   
    38    20    50 1   
    39    20    51 1   
    40    20    52 1   
    41    21    22 1   
    42    21    26 1   
    43    22    23 1   
    44    22    53 1   
    45    22    54 1   
    46    23    24 1   
    47    23    57 1   
    48    23    58 1   
    49    24    25 1   
    50    25    26 1   
    51    25    59 1   
    52    25    60 1   
    53    26    55 1   
    54    26    56 1   
    55    28    29 ar  
    56    28    35 ar  
    57    29    30 ar  
    58    29    61 1   
    59    30    31 1   
    60    30    33 ar  
    61    31    32 1   
    62    31    62 1   
    63    31    63 1   
    64    32    65 1   
    65    33    34 ar  
    66    33    64 1   
    67    34    35 ar  
    68    34    66 1   
    69    35    36 1   
    70    36    67 1   
    71    36    68 1   
    72    36    69 1   
@<TRIPOS>SUBSTRUCTURE
     1 AS6         1 TEMP              0 ****  ****    0 ROOT
