@<TRIPOS>MOLECULE
AS6
   69    72     1     0     0
SMALL
No Charge or Current Charge


@<TRIPOS>ATOM
      1 C1           6.5060     1.2210     1.7670 c3         1 AS6      -0.109100
      2 C2           5.5620     1.8800     0.7370 c3         1 AS6       0.253500
      3 C3           6.3580     2.3760    -0.4880 c3         1 AS6      -0.109100
      4 N1           4.3970     1.0420     0.3510 nh         1 AS6      -0.819100
      5 C4           3.1100     1.6200     0.2370 ca         1 AS6       0.432900
      6 C5           2.9000     2.9960     0.0330 ca         1 AS6      -0.332000
      7 C6           1.5790     3.4460    -0.0860 ca         1 AS6       0.165900
      8 N2           0.5400     2.5970    -0.0090 nb         1 AS6      -0.260000
      9 C7           0.8420     1.3040     0.1930 ca         1 AS6       0.417900
     10 N3          -0.1860     0.3770     0.2440 nu         1 AS6      -0.935900
     11 C8          -1.5820     0.4520     0.2600 ca         1 AS6       0.353000
     12 C9          -2.3040    -0.6490    -0.2180 ca         1 AS6      -0.205000
     13 C10         -3.7100    -0.6460    -0.2140 ca         1 AS6       0.327000
     14 C11         -4.3930     0.4790     0.2830 ca         1 AS6      -0.116000
     15 C12         -3.6840     1.5930     0.7820 ca         1 AS6      -0.196500
     16 C13         -2.2730     1.5660     0.7730 ca         1 AS6      -0.100000
     17 S1          -4.5710     3.0250     1.4460 sy         1 AS6       1.049500
     18 O1          -3.6790     4.1920     1.4220 o          1 AS6      -0.524000
     19 O2          -5.9110     3.0780     0.8450 o          1 AS6      -0.524000
     20 C14         -4.8040     2.5950     3.1710 c3         1 AS6      -0.336100
     21 N4          -4.4430    -1.7540    -0.7030 nh         1 AS6      -0.791400
     22 C15         -3.8870    -2.6440    -1.7760 c6         1 AS6       0.164300
     23 C16         -5.0030    -3.4310    -2.5250 c6         1 AS6       0.146100
     24 O3          -5.8600    -4.1250    -1.5870 os         1 AS6      -0.442000
     25 C17         -6.5140    -3.2230    -0.6630 c6         1 AS6       0.146100
     26 C18         -5.4650    -2.4250     0.1680 c6         1 AS6       0.164300
     27 N5           2.0650     0.7730     0.3060 nb         1 AS6      -0.316000
     28 C19          4.5830    -0.3420     0.0790 ca         1 AS6       0.287000
     29 C20          4.6100    -1.2550     1.1520 ca         1 AS6      -0.072000
     30 C21          4.7880    -2.6340     0.9350 ca         1 AS6      -0.091300
     31 C22          4.8290    -3.5970     2.1130 c3         1 AS6       0.211900
     32 O4           3.5030    -3.9960     2.4730 oh         1 AS6      -0.654000
     33 C23          4.9270    -3.1080    -0.3800 ca         1 AS6      -0.100000
     34 C24          4.8770    -2.2150    -1.4620 ca         1 AS6      -0.115000
     35 C25          4.6970    -0.8340    -1.2490 ca         1 AS6      -0.056300
     36 C26          4.6280     0.0840    -2.4700 c3         1 AS6      -0.045800
     37 H11C         7.2930     1.9230     2.0660 hc         1 AS6       0.045367
     38 H12C         5.9540     0.9370     2.6710 hc         1 AS6       0.045367
     39 H13C         6.9890     0.3290     1.3530 hc         1 AS6       0.045367
     40 H2           5.1720     2.7680     1.2500 h1         1 AS6       0.057700
     41 H31C         6.8720     1.5430    -0.9800 hc         1 AS6       0.045367
     42 H32C         5.6960     2.8560    -1.2180 hc         1 AS6       0.045367
     43 H33C         7.1140     3.1090    -0.1830 hc         1 AS6       0.045367
     44 H5           3.7170     3.7020    -0.0560 ha         1 AS6       0.133000
     45 H6           1.3480     4.4970    -0.2540 h4         1 AS6       0.023100
     46 H3           0.1660    -0.5760     0.1740 hn         1 AS6       0.510000
     47 H9          -1.7660    -1.5130    -0.5910 ha         1 AS6       0.114000
     48 H13         -1.7170     2.4030     1.1820 ha         1 AS6       0.176000
     49 H11         -5.4790     0.4850     0.2740 ha         1 AS6       0.139000
     50 H141        -3.8180     2.4530     3.6240 h1         1 AS6       0.101033
     51 H142        -5.3410     3.4160     3.6580 h1         1 AS6       0.101033
     52 H143        -5.3880     1.6700     3.2170 h1         1 AS6       0.101033
     53 H151        -3.3310    -2.0470    -2.5140 h1         1 AS6       0.049450
     54 H152        -3.1820    -3.3650    -1.3370 h1         1 AS6       0.049450
     55 H181        -4.9630    -3.1170     0.8600 h1         1 AS6       0.049450
     56 H182        -6.0010    -1.6890     0.7830 h1         1 AS6       0.049450
     57 H161        -5.6100    -2.7370    -3.1240 h1         1 AS6       0.055200
     58 H162        -4.5490    -4.1620    -3.2080 h1         1 AS6       0.055200
     59 H171        -7.1500    -2.5260    -1.2270 h1         1 AS6       0.055200
     60 H172        -7.1600    -3.8030     0.0110 h1         1 AS6       0.055200
     61 H20          4.4840    -0.8850     2.1650 ha         1 AS6       0.131000
     62 H221         5.4310    -4.4760     1.8440 h1         1 AS6       0.024700
     63 H222         5.3230    -3.1080     2.9630 h1         1 AS6       0.024700
     64 H23          5.0630    -4.1720    -0.5660 ha         1 AS6       0.111000
     65 H4           3.5910    -4.6180     3.2290 ho         1 AS6       0.443000
     66 H24          4.9750    -2.6020    -2.4740 ha         1 AS6       0.113000
     67 H261         5.6210     0.4660    -2.7290 hc         1 AS6       0.044700
     68 H262         4.2440    -0.4510    -3.3460 hc         1 AS6       0.044700
     69 H263         3.9660     0.9420    -2.3100 hc         1 AS6       0.044700
@<TRIPOS>BOND
     1     1     2 1   
     2     1    37 1   
     3     1    38 1   
     4     1    39 1   
     5     2     3 1   
     6     2     4 1   
     7     2    40 1   
     8     3    41 1   
     9     3    42 1   
    10     3    43 1   
    11     4     5 1   
    12     4    28 1   
    13     5     6 ar  
    14     5    27 ar  
    15     6     7 ar  
    16     6    44 1   
    17     7     8 ar  
    18     7    45 1   
    19     8     9 ar  
    20     9    10 1   
    21     9    27 ar  
    22    10    11 1   
    23    10    46 1   
    24    11    12 ar  
    25    11    16 ar  
    26    12    13 ar  
    27    12    47 1   
    28    13    14 ar  
    29    13    21 1   
    30    14    15 ar  
    31    14    49 1   
    32    15    16 ar  
    33    15    17 1   
    34    16    48 1   
    35    17    18 2   
    36    17    19 2   
    37    17    20 1   
    38    20    50 1   
    39    20    51 1   
    40    20    52 1   
    41    21    22 1   
    42    21    26 1   
    43    22    23 1   
    44    22    53 1   
    45    22    54 1   
    46    23    24 1   
    47    23    57 1   
    48    23    58 1   
    49    24    25 1   
    50    25    26 1   
    51    25    59 1   
    52    25    60 1   
    53    26    55 1   
    54    26    56 1   
    55    28    29 ar  
    56    28    35 ar  
    57    29    30 ar  
    58    29    61 1   
    59    30    31 1   
    60    30    33 ar  
    61    31    32 1   
    62    31    62 1   
    63    31    63 1   
    64    32    65 1   
    65    33    34 ar  
    66    33    64 1   
    67    34    35 ar  
    68    34    66 1   
    69    35    36 1   
    70    36    67 1   
    71    36    68 1   
    72    36    69 1   
@<TRIPOS>SUBSTRUCTURE
     1 AS6         1 TEMP              0 ****  ****    0 ROOT
