@<TRIPOS>MOLECULE
AS7
   30    30     1     0     0
SMALL
No Charge or Current Charge


@<TRIPOS>ATOM
      1 C           17.3560   -13.6520    20.9610 c          1 AS7       0.942600
      2 N           17.7240   -14.7770    23.3680 n8         1 AS7      -0.910800
      3 O           16.6350   -12.7950    21.4660 o          1 AS7      -0.825800
      4 C1          14.0120   -17.5510    22.6360 c3         1 AS7       0.149300
      5 C2          13.8490   -18.5740    23.7500 ca         1 AS7      -0.070300
      6 C3          13.8210   -19.9500    23.4520 ca         1 AS7      -0.124500
      7 C4          13.6740   -20.8970    24.4820 ca         1 AS7      -0.092000
      8 C5          13.5550   -20.4730    25.8200 ca         1 AS7      -0.046000
      9 C6          13.5870   -19.0980    26.1200 ca         1 AS7      -0.092000
     10 C7          13.7340   -18.1530    25.0890 ca         1 AS7      -0.124500
     11 C8          13.4060   -21.4400    26.8730 cg         1 AS7       0.255800
     12 N9          13.2760   -22.2280    27.7230 n1         1 AS7      -0.405800
     13 CA          17.9010   -14.8550    21.8680 c3         1 AS7       0.025500
     14 CB          17.4040   -16.2310    21.3540 c3         1 AS7      -0.122400
     15 CG          15.8790   -16.3740    21.4400 c          1 AS7       0.684100
     16 OD1         15.1150   -15.8080    20.6700 o          1 AS7      -0.569100
     17 ND2         15.4210   -17.2450    22.4020 ns         1 AS7      -0.595900
     18 OXT         17.7700   -13.5580    19.8090 o          1 AS7      -0.825800
     19 H           18.3180   -15.4790    23.8210 hn         1 AS7       0.331800
     20 H2          18.0870   -13.8770    23.7030 hn         1 AS7       0.331800
     21 H1          13.5710   -17.9380    21.7080 h1         1 AS7       0.052700
     22 H1A         13.4850   -16.6250    22.9010 h1         1 AS7       0.052700
     23 H3          13.9140   -20.2870    22.4210 ha         1 AS7       0.158000
     24 H4          13.6530   -21.9580    24.2380 ha         1 AS7       0.135500
     25 H6          13.4980   -18.7590    27.1510 ha         1 AS7       0.135500
     26 H7          13.7600   -17.0920    25.3310 ha         1 AS7       0.158000
     27 HA          18.9890   -14.8450    21.7200 h1         1 AS7       0.003700
     28 HB          17.7050   -16.3350    20.3050 hc         1 AS7       0.042700
     29 HBA         17.8880   -17.0190    21.9450 hc         1 AS7       0.042700
     30 HND2        16.1160   -17.6740    22.9990 hn         1 AS7       0.300500
@<TRIPOS>BOND
     1     1     3 1   
     2     1    13 1   
     3     1    18 1   
     4     2    13 1   
     5     2    19 1   
     6     2    20 1   
     7     4     5 1   
     8     4    17 1   
     9     4    21 1   
    10     4    22 1   
    11     5     6 ar  
    12     5    10 ar  
    13     6     7 ar  
    14     6    23 1   
    15     7     8 ar  
    16     7    24 1   
    17     8     9 ar  
    18     8    11 1   
    19     9    10 ar  
    20     9    25 1   
    21    10    26 1   
    22    11    12 3   
    23    13    14 1   
    24    13    27 1   
    25    14    15 1   
    26    14    28 1   
    27    14    29 1   
    28    15    16 2   
    29    15    17 1   
    30    17    30 1   
@<TRIPOS>SUBSTRUCTURE
     1 AS7         1 TEMP              0 ****  ****    0 ROOT
