@<TRIPOS>MOLECULE
AS7
   30    30     1     0     0
SMALL
bcc


@<TRIPOS>ATOM
      1 C           16.6790   -13.6330    22.5380 c          1 AS7       0.942600
      2 N           17.4580   -15.7660    23.5670 n8         1 AS7      -0.910800
      3 O           16.3410   -13.3290    23.6980 o          1 AS7      -0.825800
      4 C1          14.4980   -18.5920    21.7520 c3         1 AS7       0.149300
      5 C2          14.3010   -18.9280    23.2110 ca         1 AS7      -0.070300
      6 C3          13.3110   -19.8520    23.5510 ca         1 AS7      -0.124500
      7 C4          13.0740   -20.1890    24.8680 ca         1 AS7      -0.092000
      8 C5          13.8380   -19.5980    25.8760 ca         1 AS7      -0.046000
      9 C6          14.8320   -18.6770    25.5490 ca         1 AS7      -0.092000
     10 C7          15.0590   -18.3460    24.2220 ca         1 AS7      -0.124500
     11 C8          13.6000   -19.9400    27.2400 cg         1 AS7       0.255800
     12 N9          13.4030   -20.2170    28.3410 n1         1 AS7      -0.405800
     13 CA          17.4720   -14.9540    22.3600 c3         1 AS7       0.025500
     14 CB          16.9780   -15.7910    21.1770 c3         1 AS7      -0.122400
     15 CG          15.6510   -16.4440    21.4820 c          1 AS7       0.684100
     16 OD1         14.6370   -15.8030    21.7200 o          1 AS7      -0.569100
     17 ND2         15.6550   -17.7940    21.4600 ns         1 AS7      -0.595900
     18 OXT         16.5070   -12.9570    21.5050 o          1 AS7      -0.825800
     19 H           18.2990   -16.3250    23.6270 hn         1 AS7       0.331800
     20 H2          17.4430   -15.1500    24.3690 hn         1 AS7       0.331800
     21 H1          14.5680   -19.5200    21.1820 h1         1 AS7       0.052700
     22 H1A         13.6080   -18.0760    21.3860 h1         1 AS7       0.052700
     23 H3          12.7170   -20.3140    22.7710 ha         1 AS7       0.158000
     24 H4          12.3040   -20.9070    25.1180 ha         1 AS7       0.135500
     25 H6          15.4240   -18.2190    26.3300 ha         1 AS7       0.135500
     26 H7          15.8350   -17.6250    23.9850 ha         1 AS7       0.158000
     27 HA          18.4930   -14.6310    22.0970 h1         1 AS7       0.003700
     28 HB          16.8640   -15.1490    20.3030 hc         1 AS7       0.042700
     29 HBA         17.7270   -16.5450    20.9240 hc         1 AS7       0.042700
     30 HND2        16.5270   -18.2740    21.3130 hn         1 AS7       0.300500
@<TRIPOS>BOND
     1     1     3 1   
     2     1    13 1   
     3     1    18 1   
     4     2    13 1   
     5     2    19 1   
     6     2    20 1   
     7     4     5 1   
     8     4    17 1   
     9     4    21 1   
    10     4    22 1   
    11     5     6 ar  
    12     5    10 ar  
    13     6     7 ar  
    14     6    23 1   
    15     7     8 ar  
    16     7    24 1   
    17     8     9 ar  
    18     8    11 1   
    19     9    10 ar  
    20     9    25 1   
    21    10    26 1   
    22    11    12 3   
    23    13    14 1   
    24    13    27 1   
    25    14    15 1   
    26    14    28 1   
    27    14    29 1   
    28    15    16 2   
    29    15    17 1   
    30    17    30 1   
@<TRIPOS>SUBSTRUCTURE
     1 AS7         1 TEMP              0 ****  ****    0 ROOT
