@<TRIPOS>MOLECULE
AS8
   11    10     1     0     0
SMALL
No Charge or Current Charge


@<TRIPOS>ATOM
      1 O1S          1.8570     1.2320     0.1550 o          1 AS8      -0.687867
      2 O2S          1.1020    -0.6430    -1.2570 o          1 AS8      -0.687867
      3 O3S          1.0070    -0.8270     1.2110 o          1 AS8      -0.687867
      4 C1M         -2.8760     0.6580    -0.0700 c3         1 AS8      -0.166100
      5 C1          -1.5740    -0.1380    -0.0790 c          1 AS8       0.649100
      6 O2          -1.5510    -1.3590    -0.1700 o          1 AS8      -0.495000
      7 O1          -0.5100     0.6920     0.0240 os         1 AS8      -0.564800
      8 S            0.9870     0.0530     0.0330 s6         1 AS8       1.498300
      9 H1M1        -3.7640     0.0210    -0.1520 hc         1 AS8       0.047033
     10 H1M2        -2.9050     1.2810     0.8310 hc         1 AS8       0.047033
     11 H1M3        -2.8400     1.4090    -0.8680 hc         1 AS8       0.047033
@<TRIPOS>BOND
     1     1     8 1   
     2     2     8 1   
     3     3     8 1   
     4     4     5 1   
     5     4     9 1   
     6     4    10 1   
     7     4    11 1   
     8     5     6 2   
     9     5     7 1   
    10     7     8 1   
@<TRIPOS>SUBSTRUCTURE
     1 AS8         1 TEMP              0 ****  ****    0 ROOT
