@<TRIPOS>MOLECULE
AS8
   11    10     1     0     0
SMALL
bcc


@<TRIPOS>ATOM
      1 O1S          1.7940     1.2430     0.2340 o          1 AS8      -0.687867
      2 O2S          1.1590    -0.5860    -1.2830 o          1 AS8      -0.687867
      3 O3S          1.0880    -0.9230     1.1590 o          1 AS8      -0.687867
      4 C1M         -2.8740     0.6930    -0.0690 c3         1 AS8      -0.166100
      5 C1          -1.6140    -0.1210    -0.0670 c          1 AS8       0.698100
      6 O2          -1.5640    -1.3150    -0.1960 o          1 AS8      -0.544000
      7 O1          -0.5380     0.6620     0.0790 os         1 AS8      -0.564800
      8 S            1.0480     0.0080     0.0410 s6         1 AS8       1.498300
      9 H1M1        -3.7450     0.0440    -0.0260 hc         1 AS8       0.047033
     10 H1M2        -2.8970     1.3880     0.7700 hc         1 AS8       0.047033
     11 H1M3        -2.9250     1.2860    -0.9840 hc         1 AS8       0.047033
@<TRIPOS>BOND
     1     1     8 1   
     2     2     8 1   
     3     3     8 1   
     4     4     5 1   
     5     4     9 1   
     6     4    10 1   
     7     4    11 1   
     8     5     6 2   
     9     5     7 1   
    10     7     8 1   
@<TRIPOS>SUBSTRUCTURE
     1 AS8         1 TEMP              0 ****  ****    0 ROOT
