@<TRIPOS>MOLECULE
AS9
   20    19     1     0     0
SMALL
bcc


@<TRIPOS>ATOM
      1 CAA        -48.8340    20.0340   -21.4430 c3         1 AS9      -0.281300
      2 PAM        -48.6700    20.1410   -19.6180 p5         1 AS9       1.213500
      3 OAG        -48.6720    18.7480   -19.0240 o          1 AS9      -0.865000
      4 OAD        -47.4890    21.0460   -19.3260 o          1 AS9      -0.865000
      5 N          -50.1770    20.8580   -19.2360 n7         1 AS9      -0.910300
      6 CA         -50.7750    20.7240   -17.9160 c3         1 AS9       0.115500
      7 C          -52.2260    21.2540   -17.9460 c          1 AS9       0.943600
      8 OXT        -53.0790    20.6110   -17.3010 o          1 AS9      -0.890300
      9 O          -52.4230    22.3080   -18.5900 o          1 AS9      -0.890300
     10 CB         -49.9980    21.4570   -16.8040 c3         1 AS9      -0.203400
     11 CG         -50.5930    21.2230   -15.4060 c          1 AS9       0.946600
     12 OD2        -50.4760    20.0660   -14.9450 o          1 AS9      -0.890300
     13 OD1        -51.1450    22.1900   -14.8390 o          1 AS9      -0.890300
     14 HAA1       -49.6650    19.3930   -21.7390 hc         1 AS9       0.012033
     15 HAA2       -48.9950    21.0180   -21.8880 hc         1 AS9       0.012033
     16 HAA3       -47.9210    19.6240   -21.8770 hc         1 AS9       0.012033
     17 H          -50.2740    21.8110   -19.5660 hn         1 AS9       0.355800
     18 HA         -50.7940    19.6620   -17.6670 h1         1 AS9       0.065700
     19 HB2        -48.9650    21.0950   -16.8190 hc         1 AS9       0.005200
     20 HB3        -49.9680    22.5230   -17.0470 hc         1 AS9       0.005200
@<TRIPOS>BOND
     1     1     2 1   
     2     1    14 1   
     3     1    15 1   
     4     1    16 1   
     5     2     3 1   
     6     2     4 1   
     7     2     5 1   
     8     5     6 1   
     9     5    17 1   
    10     6     7 1   
    11     6    10 1   
    12     6    18 1   
    13     7     8 1   
    14     7     9 1   
    15    10    11 1   
    16    10    19 1   
    17    10    20 1   
    18    11    12 1   
    19    11    13 1   
@<TRIPOS>SUBSTRUCTURE
     1 AS9         1 TEMP              0 ****  ****    0 ROOT
