@<TRIPOS>MOLECULE
AS9
   20    19     1     0     0
SMALL
No Charge or Current Charge


@<TRIPOS>ATOM
      1 CAA        -48.8430    20.2070   -21.4500 c3         1 AS9      -0.439100
      2 PAM        -48.7280    19.9310   -19.6430 p5         1 AS9       1.371300
      3 OAG        -48.7440    18.4910   -19.2640 o          1 AS9      -0.865000
      4 OAD        -47.6040    20.7200   -19.0710 o          1 AS9      -0.865000
      5 N          -50.1580    20.6280   -19.2320 n7         1 AS9      -0.965500
      6 CA         -50.7860    20.6680   -17.8590 c3         1 AS9       0.115500
      7 C          -52.2950    21.1840   -17.8690 c          1 AS9       0.733000
      8 OXT        -53.1750    20.4240   -17.4780 o          1 AS9      -0.785000
      9 O          -52.5540    22.2640   -18.3950 o          1 AS9      -0.785000
     10 CB         -49.9140    21.4870   -16.8670 c3         1 AS9      -0.203400
     11 CG         -50.5460    21.4370   -15.4640 c          1 AS9       0.736000
     12 OD2        -50.2790    20.4880   -14.7430 o          1 AS9      -0.785000
     13 OD1        -51.2920    22.3430   -15.1260 o          1 AS9      -0.785000
     14 HAA1       -49.7220    19.6960   -21.8590 hc         1 AS9       0.012033
     15 HAA2       -48.9180    21.2780   -21.6700 hc         1 AS9       0.012033
     16 HAA3       -47.9470    19.8100   -21.9410 hc         1 AS9       0.012033
     17 H          -49.9850    21.5860   -19.5180 hn         1 AS9       0.411000
     18 HA         -50.8380    19.6410   -17.4700 h1         1 AS9       0.065700
     19 HB2        -48.9400    20.9870   -16.8340 hc         1 AS9       0.005200
     20 HB3        -49.8740    22.5160   -17.2460 hc         1 AS9       0.005200
@<TRIPOS>BOND
     1     1     2 1   
     2     1    14 1   
     3     1    15 1   
     4     1    16 1   
     5     2     3 1   
     6     2     4 1   
     7     2     5 1   
     8     5     6 1   
     9     5    17 1   
    10     6     7 1   
    11     6    10 1   
    12     6    18 1   
    13     7     8 1   
    14     7     9 1   
    15    10    11 1   
    16    10    19 1   
    17    10    20 1   
    18    11    12 1   
    19    11    13 1   
@<TRIPOS>SUBSTRUCTURE
     1 AS9         1 TEMP              0 ****  ****    0 ROOT
