@<TRIPOS>MOLECULE
ASA
   14    13     1     0     0
SMALL
No Charge or Current Charge


@<TRIPOS>ATOM
      1 N           -9.8720    34.4140    38.8010 n8         1 ASA      -0.894800
      2 CA          -9.4140    35.3580    37.7330 c3         1 ASA       0.067500
      3 C          -10.5710    36.0610    36.9470 c          1 ASA       0.575900
      4 O          -10.9900    37.1870    37.2100 o          1 ASA      -0.568100
      5 CB          -8.4230    34.6420    36.7750 c3         1 ASA      -0.214400
      6 CG          -7.0080    34.6250    37.3720 c          1 ASA       0.936600
      7 OD1         -6.2820    35.5910    37.1710 o          1 ASA      -0.842300
      8 OD2         -6.6700    33.6710    38.0610 o          1 ASA      -0.842300
      9 H           -9.0540    34.0130    39.2740 hn         1 ASA       0.347300
     10 H2         -10.3610    34.9370    39.5370 hn         1 ASA       0.347300
     11 HA          -8.8670    36.1720    38.2300 h1         1 ASA       0.046700
     12 HXT        -11.0120    35.4700    36.1130 h4         1 ASA      -0.026800
     13 HB2         -8.7970    33.6230    36.6190 hc         1 ASA       0.033700
     14 HB3         -8.4100    35.2440    35.8580 hc         1 ASA       0.033700
@<TRIPOS>BOND
     1     1     2 1   
     2     1     9 1   
     3     1    10 1   
     4     2     3 1   
     5     2     5 1   
     6     2    11 1   
     7     3     4 2   
     8     3    12 1   
     9     5     6 1   
    10     5    13 1   
    11     5    14 1   
    12     6     7 1   
    13     6     8 1   
@<TRIPOS>SUBSTRUCTURE
     1 ASA         1 TEMP              0 ****  ****    0 ROOT
