@<TRIPOS>MOLECULE
ASA
   14    13     1     0     0
SMALL
bcc


@<TRIPOS>ATOM
      1 N           -9.7360    34.8630    38.9300 n8         1 ASA      -0.894800
      2 CA          -9.3520    35.5690    37.7190 c3         1 ASA       0.067500
      3 C          -10.5990    35.8400    36.9210 c          1 ASA       0.575900
      4 O          -10.8150    36.8340    36.2740 o          1 ASA      -0.568100
      5 CB          -8.4610    34.6830    36.8430 c3         1 ASA      -0.214400
      6 CG          -7.0780    34.3170    37.4390 c          1 ASA       0.936600
      7 OD1         -6.7950    34.7560    38.5720 o          1 ASA      -0.842300
      8 OD2         -6.3640    33.6060    36.7090 o          1 ASA      -0.842300
      9 H           -8.8810    34.5810    39.3930 hn         1 ASA       0.347300
     10 H2         -10.2030    35.4990    39.5640 hn         1 ASA       0.347300
     11 HA          -8.8390    36.5230    37.8940 h1         1 ASA       0.046700
     12 HXT        -11.3270    35.0050    36.9510 h4         1 ASA      -0.026800
     13 HB2         -8.9940    33.7540    36.6100 hc         1 ASA       0.033700
     14 HB3         -8.2890    35.1790    35.8830 hc         1 ASA       0.033700
@<TRIPOS>BOND
     1     1     2 1   
     2     1     9 1   
     3     1    10 1   
     4     2     3 1   
     5     2     5 1   
     6     2    11 1   
     7     3     4 2   
     8     3    12 1   
     9     5     6 1   
    10     5    13 1   
    11     5    14 1   
    12     6     7 1   
    13     6     8 1   
@<TRIPOS>SUBSTRUCTURE
     1 ASA         1 TEMP              0 ****  ****    0 ROOT
