@<TRIPOS>MOLECULE
ASB
   20    19     1     0     0
SMALL
No Charge or Current Charge


@<TRIPOS>ATOM
      1 N           13.6240    12.2550    37.7770 n8         1 ASB      -0.864800
      2 CA          13.3960    11.1070    36.8180 c3         1 ASB       0.010500
      3 C           14.2040    11.1380    35.4480 c          1 ASB       0.934600
      4 O           14.1110    12.1270    34.7240 o          1 ASB      -0.832800
      5 CB          11.8710    10.9480    36.5820 c3         1 ASB      -0.139400
      6 CG          11.5650     9.6380    35.8410 c          1 ASB       0.685100
      7 OD1         11.3130     8.6060    36.7090 os         1 ASB      -0.374900
      8 OD2         11.5550     9.5340    34.6180 o          1 ASB      -0.616000
      9 C2          11.0090     7.2940    36.1600 c3         1 ASB       0.002400
     10 C1          10.7310     6.2000    37.2420 c          1 ASB       0.935600
     11 O1          10.7790     6.4920    38.4350 o          1 ASB      -0.840300
     12 O2          10.4670     5.0640    36.8600 o          1 ASB      -0.840300
     13 OXT         14.9880    10.2240    35.2130 o          1 ASB      -0.832800
     14 H           12.9660    12.1840    38.5590 hn         1 ASB       0.302300
     15 H2          13.3800    13.1340    37.3080 hn         1 ASB       0.302300
     16 HCA         13.7370    10.1970    37.3310 h1         1 ASB       0.090700
     17 HB2         11.3890    10.9160    37.5670 hc         1 ASB       0.020200
     18 HB3         11.5000    11.8010    36.0000 hc         1 ASB       0.020200
     19 HC21        10.1210     7.3530    35.5170 h1         1 ASB       0.018700
     20 HC22        11.8470     6.9420    35.5440 h1         1 ASB       0.018700
@<TRIPOS>BOND
     1     1     2 1   
     2     1    14 1   
     3     1    15 1   
     4     2     3 1   
     5     2     5 1   
     6     2    16 1   
     7     3     4 1   
     8     3    13 1   
     9     5     6 1   
    10     5    17 1   
    11     5    18 1   
    12     6     7 1   
    13     6     8 2   
    14     7     9 1   
    15     9    10 1   
    16     9    19 1   
    17     9    20 1   
    18    10    11 1   
    19    10    12 1   
@<TRIPOS>SUBSTRUCTURE
     1 ASB         1 TEMP              0 ****  ****    0 ROOT
