@<TRIPOS>MOLECULE
ASB
   20    19     1     0     0
SMALL
bcc


@<TRIPOS>ATOM
      1 N           13.4430    12.2060    37.7370 n8         1 ASB      -0.864800
      2 CA          13.1250    10.9970    37.0000 c3         1 ASB       0.010500
      3 C           14.1850    10.6730    35.9200 c          1 ASB       0.934600
      4 O           15.1710    11.4220    35.8190 o          1 ASB      -0.832800
      5 CB          11.7320    11.0340    36.3410 c3         1 ASB      -0.139400
      6 CG          11.2830     9.7390    35.7210 c          1 ASB       0.685100
      7 OD1         11.3440     8.7400    36.5910 os         1 ASB      -0.374900
      8 OD2         10.8330     9.6280    34.6040 o          1 ASB      -0.616000
      9 C2          11.0230     7.4240    36.1530 c3         1 ASB       0.002400
     10 C1          11.5480     6.3760    37.1540 c          1 ASB       0.935600
     11 O1          12.3420     6.7490    38.0300 o          1 ASB      -0.840300
     12 O2          11.1200     5.2260    36.9370 o          1 ASB      -0.840300
     13 OXT         13.9310     9.6630    35.2290 o          1 ASB      -0.832800
     14 H           12.6590    12.4670    38.3230 hn         1 ASB       0.302300
     15 H2          13.5850    12.9720    37.0910 hn         1 ASB       0.302300
     16 HCA         13.1280    10.1680    37.7160 h1         1 ASB       0.090700
     17 HB2         10.9910    11.3060    37.1010 hc         1 ASB       0.020200
     18 HB3         11.7000    11.8140    35.5770 hc         1 ASB       0.020200
     19 HC21         9.9410     7.3210    36.0360 h1         1 ASB       0.018700
     20 HC22        11.4700     7.2280    35.1730 h1         1 ASB       0.018700
@<TRIPOS>BOND
     1     1     2 1   
     2     1    14 1   
     3     1    15 1   
     4     2     3 1   
     5     2     5 1   
     6     2    16 1   
     7     3     4 1   
     8     3    13 1   
     9     5     6 1   
    10     5    17 1   
    11     5    18 1   
    12     6     7 1   
    13     6     8 2   
    14     7     9 1   
    15     9    10 1   
    16     9    19 1   
    17     9    20 1   
    18    10    11 1   
    19    10    12 1   
@<TRIPOS>SUBSTRUCTURE
     1 ASB         1 TEMP              0 ****  ****    0 ROOT
