@<TRIPOS>MOLECULE
ASC
   20    20     1     0     0
SMALL
No Charge or Current Charge


@<TRIPOS>ATOM
      1 C1           1.1950     0.2220    -1.4930 c          1 ASC       0.647300
      2 C2          -0.2060    -0.0410    -1.9180 ce         1 ASC      -0.134100
      3 C3          -1.0630     0.3100    -0.9640 c2         1 ASC       0.074900
      4 C4          -0.2430     0.8370     0.2140 c5         1 ASC       0.172500
      5 C5          -0.3950    -0.0090     1.5160 c3         1 ASC       0.172300
      6 C6           0.4880     0.4950     2.6880 c3         1 ASC       0.129600
      7 O1           2.2060     0.0460    -2.1570 o          1 ASC      -0.492000
      8 O2          -0.5060    -0.5630    -3.1550 oh         1 ASC      -0.515100
      9 O3          -2.4040     0.2310    -1.0270 oh         1 ASC      -0.498100
     10 O4           1.1470     0.8100    -0.2570 os         1 ASC      -0.422100
     11 O5          -0.0980    -1.4010     1.2800 oh         1 ASC      -0.632000
     12 O6           0.3070    -0.3490     3.8400 oh         1 ASC      -0.648000
     13 H4          -0.5150     1.8770     0.4410 h1         1 ASC       0.099700
     14 H5          -1.4420     0.0940     1.8350 h1         1 ASC       0.103700
     15 H61          0.2090     1.5300     2.9260 h1         1 ASC       0.030700
     16 H62          1.5420     0.4960     2.3800 h1         1 ASC       0.030700
     17 HO2          0.3460    -0.7090    -3.6310 ho         1 ASC       0.487000
     18 HO3         -2.6140    -0.1500    -1.9100 ho         1 ASC       0.493000
     19 HO5          0.0960    -1.7670     2.1730 ho         1 ASC       0.451000
     20 HO6          0.8450     0.0360     4.5700 ho         1 ASC       0.449000
@<TRIPOS>BOND
     1     1     2 1   
     2     1     7 2   
     3     1    10 1   
     4     2     3 2   
     5     2     8 1   
     6     3     4 1   
     7     3     9 1   
     8     4     5 1   
     9     4    10 1   
    10     4    13 1   
    11     5     6 1   
    12     5    11 1   
    13     5    14 1   
    14     6    12 1   
    15     6    15 1   
    16     6    16 1   
    17     8    17 1   
    18     9    18 1   
    19    11    19 1   
    20    12    20 1   
@<TRIPOS>SUBSTRUCTURE
     1 ASC         1 TEMP              0 ****  ****    0 ROOT
