@<TRIPOS>MOLECULE
ASC
   20    20     1     0     0
SMALL
abcg2


@<TRIPOS>ATOM
      1 C1           1.2070     0.1200    -1.4100 c          1 ASC       0.647300
      2 C2          -0.1500    -0.0840    -1.8870 ce         1 ASC      -0.134100
      3 C3          -0.9850     0.3160    -0.9220 c2         1 ASC       0.074900
      4 C4          -0.1910     0.7850     0.2530 c5         1 ASC       0.172500
      5 C5          -0.4310    -0.0440     1.5180 c3         1 ASC       0.172300
      6 C6           0.3690     0.5100     2.6870 c3         1 ASC       0.129600
      7 O1           2.2440    -0.1100    -1.9790 o          1 ASC      -0.492000
      8 O2          -0.4610    -0.5990    -3.0900 oh         1 ASC      -0.515100
      9 O3          -2.3080     0.3360    -0.8410 oh         1 ASC      -0.498100
     10 O4           1.1640     0.6490    -0.1740 os         1 ASC      -0.422100
     11 O5          -0.2080    -1.4070     1.2880 oh         1 ASC      -0.632000
     12 O6          -0.0110    -0.1810     3.8490 oh         1 ASC      -0.648000
     13 H4          -0.3870     1.8420     0.4600 h1         1 ASC       0.099700
     14 H5          -1.4940     0.0630     1.7600 h1         1 ASC       0.103700
     15 H61          0.1660     1.5860     2.7650 h1         1 ASC       0.030700
     16 H62          1.4440     0.4030     2.4870 h1         1 ASC       0.030700
     17 HO2          0.3380    -0.6900    -3.6240 ho         1 ASC       0.487000
     18 HO3         -2.7140    -0.0160    -1.6430 ho         1 ASC       0.493000
     19 HO5          0.7390    -1.5810     1.2890 ho         1 ASC       0.451000
     20 HO6          0.5670     0.0970     4.5650 ho         1 ASC       0.449000
@<TRIPOS>BOND
     1     1     2 1   
     2     1     7 2   
     3     1    10 1   
     4     2     3 2   
     5     2     8 1   
     6     3     4 1   
     7     3     9 1   
     8     4     5 1   
     9     4    10 1   
    10     4    13 1   
    11     5     6 1   
    12     5    11 1   
    13     5    14 1   
    14     6    12 1   
    15     6    15 1   
    16     6    16 1   
    17     8    17 1   
    18     9    18 1   
    19    11    19 1   
    20    12    20 1   
@<TRIPOS>SUBSTRUCTURE
     1 ASC         1 TEMP              0 ****  ****    0 ROOT
