@<TRIPOS>MOLECULE
ASD
   47    50     1     0     0
SMALL
abcg2


@<TRIPOS>ATOM
      1 C1          -2.6490     1.5150     0.3780 c6         1 ASD      -0.065400
      2 C10         -1.7310     0.3380     0.7350 c6         1 ASD      -0.012800
      3 C11          0.4320     1.7040     0.3740 c6         1 ASD      -0.072400
      4 C12          1.8100     1.7750    -0.2950 c6         1 ASD      -0.051400
      5 C13          2.6170     0.5280     0.0230 c5         1 ASD      -0.154000
      6 C14          1.8260    -0.7180    -0.3960 c5         1 ASD      -0.061700
      7 C15          2.8600    -1.8440    -0.3540 c5         1 ASD      -0.067400
      8 C16          4.1110    -1.1720    -0.9370 c5         1 ASD      -0.191400
      9 C17          3.9000     0.3250    -0.7520 c          1 ASD       0.580100
     10 C18          3.0440     0.5070     1.5030 c3         1 ASD      -0.079100
     11 C19         -1.6120     0.3250     2.2680 c3         1 ASD      -0.082100
     12 C2          -3.1960     1.4630    -1.0390 c6         1 ASD      -0.180400
     13 C3          -3.9450     0.1780    -1.2640 c          1 ASD       0.574300
     14 C4          -3.3860    -1.0010    -0.6050 ce         1 ASD      -0.315200
     15 C5          -2.3470    -0.9530     0.2470 c2         1 ASD      -0.035400
     16 C6          -1.6190    -2.1990     0.6270 c6         1 ASD      -0.051200
     17 C7          -0.2300    -2.1300    -0.0210 c6         1 ASD      -0.070400
     18 C8           0.5110    -0.8490     0.3510 c6         1 ASD      -0.044700
     19 C9          -0.3310     0.4130     0.0510 c6         1 ASD      -0.045700
     20 O1          -4.9120     0.1010    -2.0030 o          1 ASD      -0.527100
     21 O2           4.6370     1.1920    -1.1550 o          1 ASD      -0.510100
     22 H11         -3.4970     1.4980     1.0720 hc         1 ASD       0.049700
     23 H12         -2.1430     2.4640     0.5550 hc         1 ASD       0.049700
     24 H111         0.5410     1.8130     1.4560 hc         1 ASD       0.043200
     25 H112        -0.1470     2.5670     0.0410 hc         1 ASD       0.043200
     26 H121         1.6820     1.8610    -1.3790 hc         1 ASD       0.052200
     27 H122         2.3290     2.6790     0.0330 hc         1 ASD       0.052200
     28 H14          1.5700    -0.5770    -1.4590 hc         1 ASD       0.049700
     29 H151         3.0350    -2.1880     0.6680 hc         1 ASD       0.049200
     30 H152         2.5520    -2.7140    -0.9350 hc         1 ASD       0.049200
     31 H161         5.0480    -1.4880    -0.4740 hc         1 ASD       0.072700
     32 H162         4.2100    -1.3720    -2.0080 hc         1 ASD       0.072700
     33 H181         2.1860     0.5140     2.1720 hc         1 ASD       0.040700
     34 H182         3.6410    -0.3690     1.7600 hc         1 ASD       0.040700
     35 H183         3.6450     1.3890     1.7290 hc         1 ASD       0.040700
     36 H191        -2.5600     0.0300     2.7210 hc         1 ASD       0.038367
     37 H192        -0.8430    -0.3470     2.6440 hc         1 ASD       0.038367
     38 H193        -1.3770     1.3250     2.6360 hc         1 ASD       0.038367
     39 H21         -3.8470     2.3140    -1.2440 hc         1 ASD       0.070200
     40 H22         -2.3830     1.5000    -1.7730 hc         1 ASD       0.070200
     41 H4          -3.7890    -1.9640    -0.9050 ha         1 ASD       0.196000
     42 H61         -1.5160    -2.2890     1.7120 hc         1 ASD       0.055200
     43 H62         -2.1530    -3.0840     0.2770 hc         1 ASD       0.055200
     44 H71          0.3540    -3.0010     0.2860 hc         1 ASD       0.045700
     45 H72         -0.3430    -2.1900    -1.1090 hc         1 ASD       0.045700
     46 H8           0.7210    -0.8930     1.4250 hc         1 ASD       0.053700
     47 H9          -0.5090     0.4090    -1.0350 hc         1 ASD       0.049700
@<TRIPOS>BOND
     1     1     2 1   
     2     1    12 1   
     3     1    22 1   
     4     1    23 1   
     5     2    11 1   
     6     2    15 1   
     7     2    19 1   
     8     3     4 1   
     9     3    19 1   
    10     3    24 1   
    11     3    25 1   
    12     4     5 1   
    13     4    26 1   
    14     4    27 1   
    15     5     6 1   
    16     5     9 1   
    17     5    10 1   
    18     6     7 1   
    19     6    18 1   
    20     6    28 1   
    21     7     8 1   
    22     7    29 1   
    23     7    30 1   
    24     8     9 1   
    25     8    31 1   
    26     8    32 1   
    27     9    21 2   
    28    10    33 1   
    29    10    34 1   
    30    10    35 1   
    31    11    36 1   
    32    11    37 1   
    33    11    38 1   
    34    12    13 1   
    35    12    39 1   
    36    12    40 1   
    37    13    14 1   
    38    13    20 2   
    39    14    15 2   
    40    14    41 1   
    41    15    16 1   
    42    16    17 1   
    43    16    42 1   
    44    16    43 1   
    45    17    18 1   
    46    17    44 1   
    47    17    45 1   
    48    18    19 1   
    49    18    46 1   
    50    19    47 1   
@<TRIPOS>SUBSTRUCTURE
     1 ASD         1 TEMP              0 ****  ****    0 ROOT
