@<TRIPOS>MOLECULE
ASD
   47    50     1     0     0
SMALL
No Charge or Current Charge


@<TRIPOS>ATOM
      1 C1          -2.7070     1.5610     0.3940 c6         1 ASD      -0.065400
      2 C10         -1.7670     0.3430     0.7280 c6         1 ASD      -0.012800
      3 C11          0.4650     1.7400     0.3980 c6         1 ASD      -0.072400
      4 C12          1.8630     1.7950    -0.2890 c6         1 ASD      -0.051400
      5 C13          2.7060     0.5210     0.0140 c5         1 ASD      -0.154000
      6 C14          1.8820    -0.7270    -0.4250 c5         1 ASD      -0.061700
      7 C15          2.9190    -1.8890    -0.3350 c5         1 ASD      -0.067400
      8 C16          4.2510    -1.1900    -0.7780 c5         1 ASD      -0.191400
      9 C17          3.9440     0.3170    -0.8840 c          1 ASD       0.580100
     10 C18          3.1550     0.5510     1.5170 c3         1 ASD      -0.079100
     11 C19         -1.6670     0.2960     2.2940 c3         1 ASD      -0.082100
     12 C2          -3.3190     1.5020    -1.0210 c6         1 ASD      -0.180400
     13 C3          -4.1100     0.2070    -1.1890 c          1 ASD       0.574300
     14 C4          -3.4380    -1.0050    -0.6660 ce         1 ASD      -0.315200
     15 C5          -2.4010    -0.9690     0.2070 c2         1 ASD      -0.035400
     16 C6          -1.6320    -2.2390     0.5400 c6         1 ASD      -0.051200
     17 C7          -0.2290    -2.1550    -0.1020 c6         1 ASD      -0.070400
     18 C8           0.5240    -0.8590     0.3170 c6         1 ASD      -0.044700
     19 C9          -0.3410     0.4380     0.0440 c6         1 ASD      -0.045700
     20 O1          -5.1940     0.1690    -1.7530 o          1 ASD      -0.527100
     21 O2           4.3820     1.0860    -1.7320 o          1 ASD      -0.510100
     22 H11         -3.5470     1.5730     1.1040 hc         1 ASD       0.049700
     23 H12         -2.2020     2.5220     0.5500 hc         1 ASD       0.049700
     24 H111         0.5800     1.8380     1.4840 hc         1 ASD       0.043200
     25 H112        -0.0890     2.6290     0.0750 hc         1 ASD       0.043200
     26 H121         1.7190     1.8930    -1.3740 hc         1 ASD       0.052200
     27 H122         2.4040     2.6980     0.0270 hc         1 ASD       0.052200
     28 H14          1.5990    -0.6190    -1.4810 hc         1 ASD       0.049700
     29 H151         2.9920    -2.2880     0.6840 hc         1 ASD       0.049200
     30 H152         2.6550    -2.7280    -0.9890 hc         1 ASD       0.049200
     31 H161         4.9930    -1.3270     0.0160 hc         1 ASD       0.072700
     32 H162         4.6740    -1.5600    -1.7170 hc         1 ASD       0.072700
     33 H181         2.3070     0.5750     2.2100 hc         1 ASD       0.040700
     34 H182         3.7620    -0.3160     1.8000 hc         1 ASD       0.040700
     35 H183         3.7630     1.4410     1.7220 hc         1 ASD       0.040700
     36 H191        -2.6440     0.0750     2.7410 hc         1 ASD       0.038367
     37 H192        -0.9720    -0.4600     2.6700 hc         1 ASD       0.038367
     38 H193        -1.3410     1.2590     2.7030 hc         1 ASD       0.038367
     39 H21         -3.9480     2.3700    -1.2600 hc         1 ASD       0.070200
     40 H22         -2.4860     1.4660    -1.7330 hc         1 ASD       0.070200
     41 H4          -3.8460    -1.9490    -1.0200 ha         1 ASD       0.196000
     42 H61         -1.5560    -2.3850     1.6250 hc         1 ASD       0.055200
     43 H62         -2.1590    -3.1230     0.1550 hc         1 ASD       0.055200
     44 H71          0.3530    -3.0430     0.1800 hc         1 ASD       0.045700
     45 H72         -0.3330    -2.1850    -1.1960 hc         1 ASD       0.045700
     46 H8           0.7420    -0.9370     1.3890 hc         1 ASD       0.053700
     47 H9          -0.5120     0.4710    -1.0410 hc         1 ASD       0.049700
@<TRIPOS>BOND
     1     1     2 1   
     2     1    12 1   
     3     1    22 1   
     4     1    23 1   
     5     2    11 1   
     6     2    15 1   
     7     2    19 1   
     8     3     4 1   
     9     3    19 1   
    10     3    24 1   
    11     3    25 1   
    12     4     5 1   
    13     4    26 1   
    14     4    27 1   
    15     5     6 1   
    16     5     9 1   
    17     5    10 1   
    18     6     7 1   
    19     6    18 1   
    20     6    28 1   
    21     7     8 1   
    22     7    29 1   
    23     7    30 1   
    24     8     9 1   
    25     8    31 1   
    26     8    32 1   
    27     9    21 2   
    28    10    33 1   
    29    10    34 1   
    30    10    35 1   
    31    11    36 1   
    32    11    37 1   
    33    11    38 1   
    34    12    13 1   
    35    12    39 1   
    36    12    40 1   
    37    13    14 1   
    38    13    20 2   
    39    14    15 2   
    40    14    41 1   
    41    15    16 1   
    42    16    17 1   
    43    16    42 1   
    44    16    43 1   
    45    17    18 1   
    46    17    44 1   
    47    17    45 1   
    48    18    19 1   
    49    18    46 1   
    50    19    47 1   
@<TRIPOS>SUBSTRUCTURE
     1 ASD         1 TEMP              0 ****  ****    0 ROOT
