@<TRIPOS>MOLECULE
ASE
   30    31     1     0     0
SMALL
No Charge or Current Charge


@<TRIPOS>ATOM
      1 C1          -1.6300    -0.0820    -2.6550 ca         1 ASE       0.109100
      2 C2          -0.9990    -0.4100    -1.4380 ca         1 ASE      -0.103000
      3 C3           0.3960    -0.2850    -1.3650 ca         1 ASE      -0.056800
      4 C4          -0.8650     0.3570    -3.7610 ca         1 ASE      -0.175000
      5 C5           0.5390     0.4690    -3.6560 ca         1 ASE      -0.086000
      6 C6           1.1390     0.1360    -2.4330 ca         1 ASE      -0.080200
      7 C7           1.2990    -0.5440    -0.2790 cc         1 ASE      -0.154400
      8 C8           2.5720    -0.2610    -0.7650 cd         1 ASE      -0.144100
      9 N9           2.4840     0.1670    -2.1120 na         1 ASE      -0.221700
     10 O10         -2.9850    -0.1900    -2.7640 oh         1 ASE      -0.539100
     11 C11          0.9310    -1.0110     1.1050 c3         1 ASE      -0.014200
     12 C12          0.2290     0.0810     1.9340 c3         1 ASE       0.102000
     13 N13         -0.1280    -0.3890     3.2750 ns         1 ASE      -0.511900
     14 C14         -0.7720     0.3770     4.2180 c          1 ASE       0.598100
     15 C15         -1.0400    -0.3270     5.5420 c3         1 ASE      -0.179100
     16 O16         -1.1030     1.5350     4.0080 o          1 ASE      -0.608100
     17 H2          -1.5780    -0.7520    -0.5850 ha         1 ASE       0.133000
     18 H4          -1.3510     0.6100    -4.7000 ha         1 ASE       0.111000
     19 H5           1.1370     0.8030    -4.5010 ha         1 ASE       0.114000
     20 H8           3.5280    -0.3290    -0.2500 h4         1 ASE       0.211000
     21 HN9          3.2520     0.4400    -2.7190 hn         1 ASE       0.351000
     22 HO0         -3.2460     0.0770    -3.6720 ho         1 ASE       0.460000
     23 H111         1.8330    -1.3400     1.6360 hc         1 ASE       0.044700
     24 H112         0.2730    -1.8860     1.0320 hc         1 ASE       0.044700
     25 H121        -0.6840     0.4060     1.4180 h1         1 ASE       0.057200
     26 H122         0.8950     0.9500     2.0280 h1         1 ASE       0.057200
     27 HN3          0.1080    -1.3380     3.5400 hn         1 ASE       0.308500
     28 H151        -1.5530     0.3150     6.2660 hc         1 ASE       0.058033
     29 H152        -1.6010    -1.2490     5.3490 hc         1 ASE       0.058033
     30 H153        -0.0930    -0.7100     5.9400 hc         1 ASE       0.058033
@<TRIPOS>BOND
     1     1     2 ar  
     2     1     4 ar  
     3     1    10 1   
     4     2     3 ar  
     5     2    17 1   
     6     3     6 ar  
     7     3     7 1   
     8     4     5 ar  
     9     4    18 1   
    10     5     6 ar  
    11     5    19 1   
    12     6     9 1   
    13     7     8 2   
    14     7    11 1   
    15     8     9 1   
    16     8    20 1   
    17     9    21 1   
    18    10    22 1   
    19    11    12 1   
    20    11    23 1   
    21    11    24 1   
    22    12    13 1   
    23    12    25 1   
    24    12    26 1   
    25    13    14 1   
    26    13    27 1   
    27    14    15 1   
    28    14    16 2   
    29    15    28 1   
    30    15    29 1   
    31    15    30 1   
@<TRIPOS>SUBSTRUCTURE
     1 ASE         1 TEMP              0 ****  ****    0 ROOT
