@<TRIPOS>MOLECULE
ASE
   30    31     1     0     0
SMALL
abcg2


@<TRIPOS>ATOM
      1 C1          -1.6110    -0.1060    -2.6320 ca         1 ASE       0.109100
      2 C2          -1.0080    -0.4290    -1.4310 ca         1 ASE      -0.103000
      3 C3           0.3820    -0.2970    -1.3200 ca         1 ASE      -0.056800
      4 C4          -0.8480     0.3480    -3.7250 ca         1 ASE      -0.175000
      5 C5           0.5240     0.4800    -3.6340 ca         1 ASE      -0.086000
      6 C6           1.1330     0.1540    -2.4260 ca         1 ASE      -0.080200
      7 C7           1.3080    -0.5370    -0.2540 cc         1 ASE      -0.154400
      8 C8           2.5460    -0.2300    -0.7510 cd         1 ASE      -0.144100
      9 N9           2.4470     0.1830    -2.0470 na         1 ASE      -0.221700
     10 O10         -2.9590    -0.2400    -2.7240 oh         1 ASE      -0.539100
     11 C11          0.9820    -0.9910     1.1290 c3         1 ASE      -0.014200
     12 C12          0.2930     0.1070     1.9380 c3         1 ASE       0.102000
     13 N13         -0.0330    -0.3710     3.2640 ns         1 ASE      -0.511900
     14 C14         -0.8550     0.2790     4.1000 c          1 ASE       0.598100
     15 C15         -1.0690    -0.3730     5.4440 c3         1 ASE      -0.179100
     16 O16         -1.4080     1.3300     3.7970 o          1 ASE      -0.608100
     17 H2          -1.6060    -0.7770    -0.5970 ha         1 ASE       0.133000
     18 H4          -1.3450     0.6010    -4.6550 ha         1 ASE       0.111000
     19 H5           1.0980     0.8290    -4.4830 ha         1 ASE       0.114000
     20 H8           3.5070    -0.2800    -0.2630 h4         1 ASE       0.211000
     21 HN9          3.2230     0.4500    -2.6280 hn         1 ASE       0.351000
     22 HO0         -3.2610     0.0360    -3.5960 ho         1 ASE       0.460000
     23 H111         1.8980    -1.2980     1.6410 hc         1 ASE       0.044700
     24 H112         0.3300    -1.8700     1.0960 hc         1 ASE       0.044700
     25 H121        -0.6220     0.4230     1.4330 h1         1 ASE       0.057200
     26 H122         0.9470     0.9830     1.9910 h1         1 ASE       0.057200
     27 HN3          0.4210    -1.2100     3.5880 hn         1 ASE       0.308500
     28 H151        -0.8450     0.3430     6.2340 hc         1 ASE       0.058033
     29 H152        -2.1190    -0.6510     5.5470 hc         1 ASE       0.058033
     30 H153        -0.4620    -1.2630     5.6010 hc         1 ASE       0.058033
@<TRIPOS>BOND
     1     1     2 ar  
     2     1     4 ar  
     3     1    10 1   
     4     2     3 ar  
     5     2    17 1   
     6     3     6 ar  
     7     3     7 1   
     8     4     5 ar  
     9     4    18 1   
    10     5     6 ar  
    11     5    19 1   
    12     6     9 1   
    13     7     8 2   
    14     7    11 1   
    15     8     9 1   
    16     8    20 1   
    17     9    21 1   
    18    10    22 1   
    19    11    12 1   
    20    11    23 1   
    21    11    24 1   
    22    12    13 1   
    23    12    25 1   
    24    12    26 1   
    25    13    14 1   
    26    13    27 1   
    27    14    15 1   
    28    14    16 2   
    29    15    28 1   
    30    15    29 1   
    31    15    30 1   
@<TRIPOS>SUBSTRUCTURE
     1 ASE         1 TEMP              0 ****  ****    0 ROOT
