@<TRIPOS>MOLECULE
ASF
   25    24     1     0     0
SMALL
abcg2


@<TRIPOS>ATOM
      1 C2           5.5120     0.3860    -0.0280 c3         1 ASF      -0.089100
      2 C3           4.1450     1.0550    -0.0210 c3         1 ASF      -0.071400
      3 C4           3.0110     0.0350    -0.0190 c3         1 ASF      -0.047400
      4 C5           1.6510     0.7180    -0.0090 c3         1 ASF      -0.312400
      5 C7          -1.1720     0.4730     0.0070 c3         1 ASF      -0.197400
      6 C8          -2.3890    -0.4340     0.0220 c3         1 ASF      -0.205400
      7 C9          -3.7250     0.3440     0.0200 c          1 ASF       0.730000
      8 O1           0.4010    -1.2590    -1.2490 o          1 ASF      -0.545000
      9 O2           0.4160    -1.2530     1.2540 o          1 ASF      -0.545000
     10 O3          -4.7510    -0.3590     0.0580 o          1 ASF      -0.724500
     11 O4          -3.6640     1.5870    -0.0180 o          1 ASF      -0.724500
     12 S5           0.3330    -0.4940     0.0010 s6         1 ASF       1.014000
     13 H2C1         5.6440    -0.2480     0.8510 hc         1 ASF       0.028367
     14 H2C2         5.6380    -0.2450    -0.9100 hc         1 ASF       0.028367
     15 H2C3         6.3150     1.1230    -0.0300 hc         1 ASF       0.028367
     16 H3C1         4.0540     1.7010     0.8560 hc         1 ASF       0.035700
     17 H3C2         4.0470     1.7060    -0.8940 hc         1 ASF       0.035700
     18 H4C1         3.0960    -0.6050    -0.9000 hc         1 ASF       0.055700
     19 H4C2         3.1060    -0.6120     0.8560 hc         1 ASF       0.055700
     20 H5C1         1.5190     1.3420     0.8770 h1         1 ASF       0.086700
     21 H5C2         1.5070     1.3430    -0.8930 h1         1 ASF       0.086700
     22 H7C1        -1.1420     1.1050    -0.8820 h1         1 ASF       0.091200
     23 H7C2        -1.1290     1.1160     0.8870 h1         1 ASF       0.091200
     24 H8C1        -2.3760    -1.0980    -0.8460 hc         1 ASF       0.046700
     25 H8C2        -2.3670    -1.0820     0.9020 hc         1 ASF       0.046700
@<TRIPOS>BOND
     1     1     2 1   
     2     1    13 1   
     3     1    14 1   
     4     1    15 1   
     5     2     3 1   
     6     2    16 1   
     7     2    17 1   
     8     3     4 1   
     9     3    18 1   
    10     3    19 1   
    11     4    12 1   
    12     4    20 1   
    13     4    21 1   
    14     5     6 1   
    15     5    12 1   
    16     5    22 1   
    17     5    23 1   
    18     6     7 1   
    19     6    24 1   
    20     6    25 1   
    21     7    10 1   
    22     7    11 1   
    23     8    12 2   
    24     9    12 2   
@<TRIPOS>SUBSTRUCTURE
     1 ASF         1 TEMP              0 ****  ****    0 ROOT
