@<TRIPOS>MOLECULE
ASF
   25    24     1     0     0
SMALL
No Charge or Current Charge


@<TRIPOS>ATOM
      1 C2           5.5900     0.4690     0.0190 c3         1 ASF      -0.089100
      2 C3           4.1720     1.0680     0.0960 c3         1 ASF      -0.071400
      3 C4           3.0590     0.0090    -0.0370 c3         1 ASF      -0.047400
      4 C5           1.6430     0.6280     0.0430 c3         1 ASF      -0.312400
      5 C7          -1.2090     0.3750     0.0130 c3         1 ASF      -0.197400
      6 C8          -2.5170    -0.4700    -0.0930 c3         1 ASF      -0.205400
      7 C9          -3.7520     0.4350     0.0230 c          1 ASF       0.730000
      8 O1           0.3900    -1.1700    -1.4620 o          1 ASF      -0.545000
      9 O2           0.3920    -1.4890     1.0530 o          1 ASF      -0.545000
     10 O3          -4.1930     0.6650     1.1390 o          1 ASF      -0.724500
     11 O4          -4.1950     0.9370    -0.9990 o          1 ASF      -0.724500
     12 S5           0.3180    -0.5960    -0.1120 s6         1 ASF       1.014000
     13 H2C1         5.7480    -0.2590     0.8240 hc         1 ASF       0.028367
     14 H2C2         5.7460    -0.0360    -0.9420 hc         1 ASF       0.028367
     15 H2C3         6.3440     1.2590     0.1190 hc         1 ASF       0.028367
     16 H3C1         4.0590     1.5950     1.0520 hc         1 ASF       0.035700
     17 H3C2         4.0580     1.8170    -0.6980 hc         1 ASF       0.035700
     18 H4C1         3.1760    -0.5170    -0.9940 hc         1 ASF       0.055700
     19 H4C2         3.1780    -0.7390     0.7580 hc         1 ASF       0.055700
     20 H5C1         1.4950     1.1270     1.0070 h1         1 ASF       0.086700
     21 H5C2         1.4930     1.3520    -0.7670 h1         1 ASF       0.086700
     22 H7C1        -1.1670     1.1170    -0.7920 h1         1 ASF       0.091200
     23 H7C2        -1.1650     0.8930     0.9780 h1         1 ASF       0.091200
     24 H8C1        -2.4930    -0.9480    -1.0800 hc         1 ASF       0.046700
     25 H8C2        -2.4920    -1.1790     0.7430 hc         1 ASF       0.046700
@<TRIPOS>BOND
     1     1     2 1   
     2     1    13 1   
     3     1    14 1   
     4     1    15 1   
     5     2     3 1   
     6     2    16 1   
     7     2    17 1   
     8     3     4 1   
     9     3    18 1   
    10     3    19 1   
    11     4    12 1   
    12     4    20 1   
    13     4    21 1   
    14     5     6 1   
    15     5    12 1   
    16     5    22 1   
    17     5    23 1   
    18     6     7 1   
    19     6    24 1   
    20     6    25 1   
    21     7    10 1   
    22     7    11 1   
    23     8    12 2   
    24     9    12 2   
@<TRIPOS>SUBSTRUCTURE
     1 ASF         1 TEMP              0 ****  ****    0 ROOT
