@<TRIPOS>MOLECULE
ASG
   33    33     1     0     0
SMALL
No Charge or Current Charge


@<TRIPOS>ATOM
      1 C1           8.7930     4.5800     3.2120 c6         1 ASG       0.394300
      2 C2           8.5170     3.4830     4.2900 c6         1 ASG       0.049700
      3 C3           9.1520     3.9630     5.6320 c6         1 ASG       0.156300
      4 C4          10.6850     4.2480     5.4560 c6         1 ASG       0.170300
      5 C5          10.8370     5.2760     4.2810 c6         1 ASG       0.190300
      6 C6          12.3210     5.6820     3.9600 c3         1 ASG       0.185600
      7 C7           6.3570     2.2280     3.7800 c          1 ASG       0.610100
      8 C8           4.8720     2.1770     4.1190 c3         1 ASG      -0.179100
      9 O1           8.3610     4.1880     1.9260 oh         1 ASG      -0.622000
     10 N2           7.0670     3.1940     4.4550 ns         1 ASG      -0.486900
     11 O3           8.8910     3.0120     6.6870 oh         1 ASG      -0.689000
     12 O4          11.4070     3.0160     5.1940 os         1 ASG      -0.574700
     13 O5          10.1950     4.7980     3.0700 os         1 ASG      -0.456000
     14 O6          13.0560     4.7340     3.1610 oh         1 ASG      -0.659000
     15 O7           6.8760     1.4610     2.9820 o          1 ASG      -0.590100
     16 OSA         11.2510     2.0900     7.4300 o          1 ASG      -0.700533
     17 OSB         13.2510     3.3790     6.7770 o          1 ASG      -0.700533
     18 OSC         12.8580     1.1340     5.8120 o          1 ASG      -0.700533
     19 S           12.2770     2.3430     6.4090 s6         1 ASG       1.496300
     20 H1           8.3010     5.5210     3.4930 h2         1 ASG      -0.019300
     21 H2           9.0310     2.5640     3.9730 h1         1 ASG       0.141700
     22 H3           8.6720     4.9160     5.9000 h1         1 ASG       0.026700
     23 H4          11.0690     4.7270     6.3700 h1         1 ASG       0.067700
     24 H5          10.3240     6.2000     4.5840 h1         1 ASG       0.002700
     25 H61         12.2910     6.6460     3.4350 h1         1 ASG       0.007200
     26 H62         12.8420     5.8560     4.9100 h1         1 ASG       0.007200
     27 H81          4.7570     2.0640     5.2030 hc         1 ASG       0.048700
     28 H82          4.4310     3.1650     3.9420 hc         1 ASG       0.048700
     29 H83          4.3390     1.3910     3.5720 hc         1 ASG       0.048700
     30 HO1          9.1890     4.1980     1.4040 ho         1 ASG       0.437000
     31 HN2          6.5450     3.7470     5.1230 hn         1 ASG       0.291500
     32 HO3          9.7750     2.6260     6.9570 ho         1 ASG       0.516000
     33 HO6         13.9720     5.0800     3.0830 ho         1 ASG       0.483000
@<TRIPOS>BOND
     1     1     2 1   
     2     1     9 1   
     3     1    13 1   
     4     1    20 1   
     5     2     3 1   
     6     2    10 1   
     7     2    21 1   
     8     3     4 1   
     9     3    11 1   
    10     3    22 1   
    11     4     5 1   
    12     4    12 1   
    13     4    23 1   
    14     5     6 1   
    15     5    13 1   
    16     5    24 1   
    17     6    14 1   
    18     6    25 1   
    19     6    26 1   
    20     7     8 1   
    21     7    10 1   
    22     7    15 2   
    23     8    27 1   
    24     8    28 1   
    25     8    29 1   
    26     9    30 1   
    27    10    31 1   
    28    11    32 1   
    29    12    19 1   
    30    14    33 1   
    31    16    19 1   
    32    17    19 1   
    33    18    19 1   
@<TRIPOS>SUBSTRUCTURE
     1 ASG         1 TEMP              0 ****  ****    0 ROOT
