@<TRIPOS>MOLECULE
ASG
   33    33     1     0     0
SMALL
abcg2


@<TRIPOS>ATOM
      1 C1           8.9950     4.4720     3.0740 c6         1 ASG       0.394300
      2 C2           8.6170     3.5060     4.2030 c6         1 ASG       0.049700
      3 C3           9.1680     4.0170     5.5430 c6         1 ASG       0.156300
      4 C4          10.6700     4.2750     5.4030 c6         1 ASG       0.170300
      5 C5          10.8700     5.2630     4.2570 c6         1 ASG       0.190300
      6 C6          12.2810     5.7760     4.0470 c3         1 ASG       0.185600
      7 C7           6.5460     2.1770     4.2250 c          1 ASG       0.610100
      8 C8           5.0470     2.2530     4.3830 c3         1 ASG      -0.179100
      9 O1           8.6330     3.9090     1.8710 oh         1 ASG      -0.622000
     10 N2           7.1870     3.3590     4.2660 ns         1 ASG      -0.486900
     11 O3           8.8110     3.1990     6.6160 oh         1 ASG      -0.689000
     12 O4          11.3580     3.0700     5.0780 os         1 ASG      -0.574700
     13 O5          10.3830     4.7070     3.0560 os         1 ASG      -0.456000
     14 O6          13.1590     4.7670     3.6200 oh         1 ASG      -0.659000
     15 O7           7.1180     1.1070     4.0750 o          1 ASG      -0.590100
     16 OSA         10.9440     1.4680     6.9130 o          1 ASG      -0.700533
     17 OSB         12.7740     3.0930     7.1220 o          1 ASG      -0.700533
     18 OSC         12.9090     1.2850     5.4460 o          1 ASG      -0.700533
     19 S           12.0640     2.1620     6.2460 s6         1 ASG       1.496300
     20 H1           8.4770     5.4340     3.2460 h2         1 ASG      -0.019300
     21 H2           9.0450     2.5260     3.9840 h1         1 ASG       0.141700
     22 H3           8.7060     4.9940     5.7400 h1         1 ASG       0.026700
     23 H4          11.0570     4.7180     6.3280 h1         1 ASG       0.067700
     24 H5          10.2900     6.1610     4.5270 h1         1 ASG       0.002700
     25 H61         12.2240     6.5930     3.3160 h1         1 ASG       0.007200
     26 H62         12.5990     6.2300     4.9950 h1         1 ASG       0.007200
     27 H81          4.7590     1.7620     5.3140 hc         1 ASG       0.048700
     28 H82          4.6580     3.2690     4.3990 hc         1 ASG       0.048700
     29 H83          4.5680     1.7100     3.5690 hc         1 ASG       0.048700
     30 HO1          8.5730     4.5960     1.1990 ho         1 ASG       0.437000
     31 HN2          6.6440     4.1920     4.4340 hn         1 ASG       0.291500
     32 HO3          9.4320     2.4510     6.6870 ho         1 ASG       0.516000
     33 HO6         13.9960     5.1860     3.4000 ho         1 ASG       0.483000
@<TRIPOS>BOND
     1     1     2 1   
     2     1     9 1   
     3     1    13 1   
     4     1    20 1   
     5     2     3 1   
     6     2    10 1   
     7     2    21 1   
     8     3     4 1   
     9     3    11 1   
    10     3    22 1   
    11     4     5 1   
    12     4    12 1   
    13     4    23 1   
    14     5     6 1   
    15     5    13 1   
    16     5    24 1   
    17     6    14 1   
    18     6    25 1   
    19     6    26 1   
    20     7     8 1   
    21     7    10 1   
    22     7    15 2   
    23     8    27 1   
    24     8    28 1   
    25     8    29 1   
    26     9    30 1   
    27    10    31 1   
    28    11    32 1   
    29    12    19 1   
    30    14    33 1   
    31    16    19 1   
    32    17    19 1   
    33    18    19 1   
@<TRIPOS>SUBSTRUCTURE
     1 ASG         1 TEMP              0 ****  ****    0 ROOT
