@<TRIPOS>MOLECULE
ASH
   48    52     1     0     0
SMALL
No Charge or Current Charge


@<TRIPOS>ATOM
      1 C10         -1.1510    -3.1930     0.0130 ca         1 ASH      -0.035000
      2 C11         -1.0860    -4.5950     0.0220 ca         1 ASH      -0.171000
      3 C12         -2.2720    -5.3360     0.1110 ca         1 ASH       0.344900
      4 C14         -3.5510    -3.4030     0.1800 ca         1 ASH       0.349900
      5 C16         -1.4700     0.9420    -0.0140 cc         1 ASH       0.689900
      6 C19          1.9020     2.2160     0.6440 ca         1 ASH      -0.116500
      7 C21          3.8160     0.8750    -0.0880 ca         1 ASH       0.267000
      8 C24          7.1980    -0.9270     0.2510 c6         1 ASH       0.148100
      9 C02         -4.9100     1.7190     0.2490 cc         1 ASH      -0.006100
     10 C03         -4.3820     2.9940     0.2130 cd         1 ASH      -0.019400
     11 N04         -2.9890     2.9490     0.1060 nd         1 ASH      -0.278600
     12 C05         -2.6830     1.6550     0.0770 cc         1 ASH      -0.172000
     13 N06         -3.8020     0.9290     0.1540 na         1 ASH       0.172100
     14 C07         -3.8090    -0.4570     0.1730 cc         1 ASH      -0.210000
     15 C08         -2.5530    -1.0840     0.0880 cd         1 ASH       0.433500
     16 C09         -2.4170    -2.5630     0.0940 ca         1 ASH      -0.192500
     17 N13         -3.4880    -4.7550     0.1890 nb         1 ASH      -0.667000
     18 N15         -1.3470    -0.3620    -0.0080 nd         1 ASH      -0.770000
     19 C18          1.0220     1.4000    -0.0860 ca         1 ASH       0.269000
     20 C20          3.2850     1.9530     0.6470 ca         1 ASH      -0.132500
     21 N22          5.2100     0.6230    -0.0730 nh         1 ASH      -0.779400
     22 C23          5.7540    -0.7560    -0.3100 c6         1 ASH       0.156800
     23 O25          8.0650     0.1250    -0.2310 os         1 ASH      -0.445000
     24 C26          7.6050     1.4420     0.1560 c6         1 ASH       0.148100
     25 C27          6.1790     1.7190    -0.4090 c6         1 ASH       0.156800
     26 C28          2.9310     0.0650    -0.8290 ca         1 ASH      -0.132500
     27 C29          1.5480     0.3290    -0.8320 ca         1 ASH      -0.116500
     28 H10         -0.2270    -2.6210    -0.0550 ha         1 ASH       0.137000
     29 H11         -0.1300    -5.1070    -0.0380 ha         1 ASH       0.126000
     30 H12         -2.2490    -6.4250     0.1210 h4         1 ASH       0.021100
     31 H14         -4.5590    -3.0010     0.2450 h4         1 ASH       0.018100
     32 H24          7.1760    -0.9020     1.3510 h1         1 ASH       0.053200
     33 H24A         7.6040    -1.9000    -0.0580 h1         1 ASH       0.053200
     34 H03         -4.9240     3.9350     0.2610 h4         1 ASH       0.242000
     35 H07         -4.7680    -0.9430     0.2500 h4         1 ASH       0.166000
     36 H20          3.9450     2.5840     1.2350 ha         1 ASH       0.115500
     37 H23          5.7670    -0.9730    -1.3880 h1         1 ASH       0.046700
     38 H23A         5.1080    -1.5070     0.1680 h1         1 ASH       0.046700
     39 H26          7.5920     1.5110     1.2530 h1         1 ASH       0.053200
     40 H26A         8.3090     2.1960    -0.2230 h1         1 ASH       0.053200
     41 H27          6.2490     1.8290    -1.5010 h1         1 ASH       0.046700
     42 H27A         5.8350     2.6840    -0.0110 h1         1 ASH       0.046700
     43 H28          3.3090    -0.7640    -1.4200 ha         1 ASH       0.115500
     44 H29          0.8880    -0.2960    -1.4270 ha         1 ASH       0.130000
     45 N17         -0.3420     1.6970    -0.0840 nu         1 ASH      -0.913900
     46 Cl          -6.5730     1.2250     0.3810 cl         1 ASH      -0.104000
     47 H19          1.5160     3.0520     1.2210 ha         1 ASH       0.130000
     48 HN17        -0.5760     2.6640     0.1240 hn         1 ASH       0.524000
@<TRIPOS>BOND
     1     1     2 ar  
     2     1    16 ar  
     3     1    28 1   
     4     2     3 ar  
     5     2    29 1   
     6     3    17 ar  
     7     3    30 1   
     8     4    16 ar  
     9     4    17 ar  
    10     4    31 1   
    11     5    12 1   
    12     5    18 2   
    13     5    45 1   
    14     6    19 ar  
    15     6    20 ar  
    16     6    47 1   
    17     7    20 ar  
    18     7    21 1   
    19     7    26 ar  
    20     8    22 1   
    21     8    23 1   
    22     8    32 1   
    23     8    33 1   
    24     9    10 2   
    25     9    13 1   
    26     9    46 1   
    27    10    11 1   
    28    10    34 1   
    29    11    12 2   
    30    12    13 1   
    31    13    14 1   
    32    14    15 2   
    33    14    35 1   
    34    15    16 1   
    35    15    18 1   
    36    19    27 ar  
    37    19    45 1   
    38    20    36 1   
    39    21    22 1   
    40    21    25 1   
    41    22    37 1   
    42    22    38 1   
    43    23    24 1   
    44    24    25 1   
    45    24    39 1   
    46    24    40 1   
    47    25    41 1   
    48    25    42 1   
    49    26    27 ar  
    50    26    43 1   
    51    27    44 1   
    52    45    48 1   
@<TRIPOS>SUBSTRUCTURE
     1 ASH         1 TEMP              0 ****  ****    0 ROOT
