@<TRIPOS>MOLECULE
ASH
   48    52     1     0     0
SMALL
abcg2


@<TRIPOS>ATOM
      1 C10         -1.2570    -3.2010     0.3420 ca         1 ASH      -0.035000
      2 C11         -1.1680    -4.5750     0.2000 ca         1 ASH      -0.171000
      3 C12         -2.2200    -5.2510    -0.4000 ca         1 ASH       0.344900
      4 C14         -3.3830    -3.3220    -0.7190 ca         1 ASH       0.349900
      5 C16         -1.4090     0.9190     0.2070 cc         1 ASH       0.689900
      6 C19          1.9690     2.3760     0.4170 ca         1 ASH      -0.116500
      7 C21          3.8400     0.8680     0.0980 ca         1 ASH       0.267000
      8 C24          7.1670    -0.7910     0.2610 c6         1 ASH       0.148100
      9 C02         -4.8300     1.7410     0.3730 cc         1 ASH      -0.006100
     10 C03         -4.2640     2.9880     0.4740 cd         1 ASH      -0.019400
     11 N04         -2.9170     2.8940     0.4280 nd         1 ASH      -0.278600
     12 C05         -2.6600     1.6110     0.3010 cc         1 ASH      -0.172000
     13 N06         -3.7990     0.8590     0.2600 na         1 ASH       0.172100
     14 C07         -3.7640    -0.5100     0.1350 cc         1 ASH      -0.210000
     15 C08         -2.5370    -1.0840     0.0300 cd         1 ASH       0.433500
     16 C09         -2.3970    -2.5430    -0.1130 ca         1 ASH      -0.192500
     17 N13         -3.3060    -4.6370    -0.8570 nb         1 ASH      -0.667000
     18 N15         -1.3730    -0.3780     0.0730 nd         1 ASH      -0.770000
     19 C18          1.0470     1.3470     0.2000 ca         1 ASH       0.269000
     20 C20          3.3260     2.1440     0.3730 ca         1 ASH      -0.132500
     21 N22          5.2210     0.6530     0.0910 nh         1 ASH      -0.779400
     22 C23          5.6880    -0.7090    -0.0680 c6         1 ASH       0.156800
     23 O25          7.9330     0.0970    -0.5200 os         1 ASH      -0.445000
     24 C26          7.4950     1.4230    -0.3300 c6         1 ASH       0.148100
     25 C27          6.0300     1.5870    -0.6820 c6         1 ASH       0.156800
     26 C28          2.9120    -0.1500    -0.1250 ca         1 ASH      -0.132500
     27 C29          1.5410     0.0750    -0.0680 ca         1 ASH      -0.116500
     28 H10         -0.4560    -2.6450     0.8100 ha         1 ASH       0.137000
     29 H11         -0.3000    -5.1150     0.5500 ha         1 ASH       0.126000
     30 H12         -2.1820    -6.3270    -0.5220 h4         1 ASH       0.021100
     31 H14         -4.2700    -2.8520    -1.1310 h4         1 ASH       0.018100
     32 H24          7.3090    -0.5840     1.3310 h1         1 ASH       0.053200
     33 H24A         7.5300    -1.8000     0.0630 h1         1 ASH       0.053200
     34 H03         -4.7800     3.9290     0.5760 h4         1 ASH       0.242000
     35 H07         -4.7040    -1.0390     0.1460 h4         1 ASH       0.166000
     36 H20          3.9940     2.9700     0.5780 ha         1 ASH       0.115500
     37 H23          5.5090    -1.0890    -1.0860 h1         1 ASH       0.046700
     38 H23A         5.1570    -1.3660     0.6230 h1         1 ASH       0.046700
     39 H26          7.6530     1.7360     0.7120 h1         1 ASH       0.053200
     40 H26A         8.1010     2.0660    -0.9700 h1         1 ASH       0.053200
     41 H27          5.8850     1.4290    -1.7620 h1         1 ASH       0.046700
     42 H27A         5.7450     2.6150    -0.4630 h1         1 ASH       0.046700
     43 H28          3.2390    -1.1540    -0.3590 ha         1 ASH       0.115500
     44 H29          0.8680    -0.7470    -0.2480 ha         1 ASH       0.130000
     45 N17         -0.3060     1.6920     0.2620 nu         1 ASH      -0.913900
     46 CL          -6.4480     1.2400     0.3690 cl         1 ASH      -0.104000
     47 H19          1.6160     3.3770     0.6410 ha         1 ASH       0.130000
     48 HN17        -0.4900     2.6770     0.3900 hn         1 ASH       0.524000
@<TRIPOS>BOND
     1     1     2 ar  
     2     1    16 ar  
     3     1    28 1   
     4     2     3 ar  
     5     2    29 1   
     6     3    17 ar  
     7     3    30 1   
     8     4    16 ar  
     9     4    17 ar  
    10     4    31 1   
    11     5    12 1   
    12     5    18 2   
    13     5    45 1   
    14     6    19 ar  
    15     6    20 ar  
    16     6    47 1   
    17     7    20 ar  
    18     7    21 1   
    19     7    26 ar  
    20     8    22 1   
    21     8    23 1   
    22     8    32 1   
    23     8    33 1   
    24     9    10 2   
    25     9    13 1   
    26     9    46 1   
    27    10    11 1   
    28    10    34 1   
    29    11    12 2   
    30    12    13 1   
    31    13    14 1   
    32    14    15 2   
    33    14    35 1   
    34    15    16 1   
    35    15    18 1   
    36    19    27 ar  
    37    19    45 1   
    38    20    36 1   
    39    21    22 1   
    40    21    25 1   
    41    22    37 1   
    42    22    38 1   
    43    23    24 1   
    44    24    25 1   
    45    24    39 1   
    46    24    40 1   
    47    25    41 1   
    48    25    42 1   
    49    26    27 ar  
    50    26    43 1   
    51    27    44 1   
    52    45    48 1   
@<TRIPOS>SUBSTRUCTURE
     1 ASH         1 TEMP              0 ****  ****    0 ROOT
