@<TRIPOS>MOLECULE
ASI
   14    13     1     0     0
SMALL
No Charge or Current Charge


@<TRIPOS>ATOM
      1 N            0.5140     1.7070    -0.5620 n8         1 ASI      -0.852800
      2 CA           0.4820     0.3750     0.1490 c3         1 ASI       0.034500
      3 C1           1.8800    -0.3740     0.3040 c          1 ASI       0.893600
      4 O1           2.5480    -0.6070    -0.7000 o          1 ASI      -0.878300
      5 O2           2.3100    -0.5970     1.4320 o          1 ASI      -0.878300
      6 C2          -0.5930    -0.5590    -0.4850 c3         1 ASI      -0.169400
      7 C           -1.9730    -0.3230     0.1600 c          1 ASI       0.934600
      8 O           -2.2380    -0.9110     1.2030 o          1 ASI      -0.883800
      9 OXT         -2.7670     0.4380    -0.3810 o          1 ASI      -0.883800
     10 H            1.1830     2.3230    -0.0890 hn         1 ASI       0.297300
     11 H2           0.9140     1.5680    -1.4950 hn         1 ASI       0.297300
     12 HA           0.1630     0.5810     1.1800 h1         1 ASI       0.056700
     13 H21         -0.6160    -0.3590    -1.5640 hc         1 ASI       0.016200
     14 H22         -0.2640    -1.5770    -0.2440 hc         1 ASI       0.016200
@<TRIPOS>BOND
     1     1     2 1   
     2     1    10 1   
     3     1    11 1   
     4     2     3 1   
     5     2     6 1   
     6     2    12 1   
     7     3     4 1   
     8     3     5 1   
     9     6     7 1   
    10     6    13 1   
    11     6    14 1   
    12     7     8 1   
    13     7     9 1   
@<TRIPOS>SUBSTRUCTURE
     1 ASI         1 TEMP              0 ****  ****    0 ROOT
