@<TRIPOS>MOLECULE
ASI
   14    13     1     0     0
SMALL
bcc


@<TRIPOS>ATOM
      1 N            0.3840     1.6420    -0.3470 n8         1 ASI      -0.852800
      2 CA           0.5360     0.3280     0.2620 c3         1 ASI       0.034500
      3 C1           1.9320    -0.3190     0.1050 c          1 ASI       0.893600
      4 O1           2.7130     0.1730    -0.7360 o          1 ASI      -0.878300
      5 O2           2.1610    -1.3120     0.8300 o          1 ASI      -0.878300
      6 C2          -0.5300    -0.6090    -0.3020 c3         1 ASI      -0.169400
      7 C           -1.9640    -0.1610     0.0120 c          1 ASI       0.934600
      8 O           -2.2200     0.1030     1.2060 o          1 ASI      -0.883800
      9 OXT         -2.7780    -0.1240    -0.9360 o          1 ASI      -0.883800
     10 H            1.0650     2.2710     0.0630 hn         1 ASI       0.297300
     11 H2           0.6690     1.5690    -1.3170 hn         1 ASI       0.297300
     12 HA           0.3400     0.4350     1.3340 h1         1 ASI       0.056700
     13 H21         -0.3900    -0.7050    -1.3840 hc         1 ASI       0.016200
     14 H22         -0.3770    -1.6070     0.1200 hc         1 ASI       0.016200
@<TRIPOS>BOND
     1     1     2 1   
     2     1    10 1   
     3     1    11 1   
     4     2     3 1   
     5     2     6 1   
     6     2    12 1   
     7     3     4 1   
     8     3     5 1   
     9     6     7 1   
    10     6    13 1   
    11     6    14 1   
    12     7     8 1   
    13     7     9 1   
@<TRIPOS>SUBSTRUCTURE
     1 ASI         1 TEMP              0 ****  ****    0 ROOT
