@<TRIPOS>MOLECULE
ASJ
   16    15     1     0     0
SMALL
No Charge or Current Charge


@<TRIPOS>ATOM
      1 C           35.5280    93.1340    16.3950 c3         1 ASJ       0.147600
      2 N           37.0850    94.2990    17.9780 n8         1 ASJ      -1.005200
      3 O           36.2170    91.8890    16.6210 oh         1 ASJ      -0.674000
      4 CA          35.6630    94.0880    17.6280 c3         1 ASJ       0.186500
      5 CB          34.9380    95.4380    17.4180 c3         1 ASJ      -0.210400
      6 CG          34.5380    96.0390    18.7730 c          1 ASJ       0.723000
      7 OD1         33.4750    95.6870    19.2640 o          1 ASJ      -0.742500
      8 OD2         35.3010    96.8240    19.3160 o          1 ASJ      -0.742500
      9 H           35.9360    93.6340    15.5060 h1         1 ASJ       0.012700
     10 HA          34.4630    92.9420    16.2060 h1         1 ASJ       0.012700
     11 HN          37.1430    94.5900    18.9600 hn         1 ASJ       0.398000
     12 HNA         37.5340    93.3750    17.9640 hn         1 ASJ       0.398000
     13 HO          36.1110    91.3540    15.8040 ho         1 ASJ       0.419000
     14 HAA         35.1890    93.5680    18.4730 h1         1 ASJ       0.030700
     15 HB          35.6230    96.1000    16.8740 hc         1 ASJ       0.023700
     16 HBA         34.0280    95.1990    16.8530 hc         1 ASJ       0.023700
@<TRIPOS>BOND
     1     1     3 1   
     2     1     4 1   
     3     1     9 1   
     4     1    10 1   
     5     2     4 1   
     6     2    11 1   
     7     2    12 1   
     8     3    13 1   
     9     4     5 1   
    10     4    14 1   
    11     5     6 1   
    12     5    15 1   
    13     5    16 1   
    14     6     7 1   
    15     6     8 1   
@<TRIPOS>SUBSTRUCTURE
     1 ASJ         1 TEMP              0 ****  ****    0 ROOT
