@<TRIPOS>MOLECULE
ASJ
   16    15     1     0     0
SMALL
bcc


@<TRIPOS>ATOM
      1 C           35.6020    93.2240    16.3210 c3         1 ASJ       0.124400
      2 N           36.8820    94.0110    18.2280 n8         1 ASJ      -0.894800
      3 O           36.0520    91.8980    16.5210 oh         1 ASJ      -0.611800
      4 CA          35.5420    93.9420    17.6570 c3         1 ASJ       0.186500
      5 CB          34.9890    95.3450    17.4580 c3         1 ASJ      -0.210400
      6 CG          34.7530    96.1790    18.7360 c          1 ASJ       0.933600
      7 OD1         34.8610    95.6020    19.8390 o          1 ASJ      -0.847800
      8 OD2         34.4540    97.3750    18.5520 o          1 ASJ      -0.847800
      9 H           36.2750    93.7770    15.6510 h1         1 ASJ       0.012700
     10 HA          34.6040    93.2390    15.8620 h1         1 ASJ       0.012700
     11 HN          36.8020    94.4290    19.1470 hn         1 ASJ       0.342800
     12 HNA         37.2310    93.0730    18.3790 hn         1 ASJ       0.342800
     13 HO          36.2030    91.4970    15.6610 ho         1 ASJ       0.380000
     14 HAA         34.8390    93.3860    18.2970 h1         1 ASJ       0.030700
     15 HB          35.6540    95.9030    16.7910 hc         1 ASJ       0.023700
     16 HBA         34.0300    95.2790    16.9300 hc         1 ASJ       0.023700
@<TRIPOS>BOND
     1     1     3 1   
     2     1     4 1   
     3     1     9 1   
     4     1    10 1   
     5     2     4 1   
     6     2    11 1   
     7     2    12 1   
     8     3    13 1   
     9     4     5 1   
    10     4    14 1   
    11     5     6 1   
    12     5    15 1   
    13     5    16 1   
    14     6     7 1   
    15     6     8 1   
@<TRIPOS>SUBSTRUCTURE
     1 ASJ         1 TEMP              0 ****  ****    0 ROOT
