@<TRIPOS>MOLECULE
ASK
   17    16     1     0     0
SMALL
bcc


@<TRIPOS>ATOM
      1 N            0.4360     1.7580    -0.0360 n8         1 ASK      -0.888800
      2 CA           0.5520     0.3460     0.2700 c3         1 ASK       0.084500
      3 CB          -0.5050    -0.5440    -0.4020 c3         1 ASK      -0.249400
      4 CG          -1.9590    -0.2320     0.0170 c          1 ASK       0.925600
      5 OD1         -2.1300     0.4420     1.0530 o          1 ASK      -0.838300
      6 OD2         -2.8460    -0.7120    -0.7140 o          1 ASK      -0.838300
      7 C            1.9150    -0.1720    -0.1290 c          1 ASK       0.576100
      8 O            2.5730     0.3630    -0.9950 o          1 ASK      -0.558100
      9 CM           2.4090    -1.3900     0.6040 c3         1 ASK      -0.202100
     10 H            0.5100     1.8940    -1.0370 hn         1 ASK       0.350800
     11 H2          -0.4980     2.0500     0.2230 hn         1 ASK       0.350800
     12 HA           0.4530     0.2200     1.3530 h1         1 ASK       0.081700
     13 HB2         -0.4150    -0.4570    -1.4900 hc         1 ASK       0.028700
     14 HB3         -0.3250    -1.6010    -0.1720 hc         1 ASK       0.028700
     15 HM1          1.5930    -2.0250     0.9490 hc         1 ASK       0.049367
     16 HM2          3.0970    -1.9740    -0.0040 hc         1 ASK       0.049367
     17 HM3          2.9460    -1.0540     1.4960 hc         1 ASK       0.049367
@<TRIPOS>BOND
     1     1     2 1   
     2     1    10 1   
     3     1    11 1   
     4     2     3 1   
     5     2     7 1   
     6     2    12 1   
     7     3     4 1   
     8     3    13 1   
     9     3    14 1   
    10     4     5 1   
    11     4     6 1   
    12     7     8 2   
    13     7     9 1   
    14     9    15 1   
    15     9    16 1   
    16     9    17 1   
@<TRIPOS>SUBSTRUCTURE
     1 ASK         1 TEMP              0 ****  ****    0 ROOT
