@<TRIPOS>MOLECULE
ASK
   17    16     1     0     0
SMALL
No Charge or Current Charge


@<TRIPOS>ATOM
      1 N            0.3520     1.6770    -0.6810 n8         1 ASK      -0.888800
      2 CA           0.5440     0.3480    -0.0200 c3         1 ASK       0.084500
      3 CB          -0.6230    -0.6010    -0.4060 c3         1 ASK      -0.249400
      4 CG          -1.8610    -0.2990     0.4480 c          1 ASK       0.925600
      5 OD1         -1.9590    -0.8440     1.5380 o          1 ASK      -0.838300
      6 OD2         -2.6730     0.5160     0.0300 o          1 ASK      -0.838300
      7 C            1.9500    -0.3210    -0.2510 c          1 ASK       0.576100
      8 O            2.6070    -0.1450    -1.2750 o          1 ASK      -0.558100
      9 CM           2.4860    -1.1950     0.8860 c3         1 ASK      -0.202100
     10 H            0.5120     1.5740    -1.6900 hn         1 ASK       0.350800
     11 H2          -0.6360     1.9450    -0.6100 hn         1 ASK       0.350800
     12 HA           0.4860     0.5140     1.0660 h1         1 ASK       0.081700
     13 HB2         -0.8300    -0.4480    -1.4720 hc         1 ASK       0.028700
     14 HB3         -0.2750    -1.6160    -0.1780 hc         1 ASK       0.028700
     15 HM1          1.7380    -1.9520     1.1470 hc         1 ASK       0.049367
     16 HM2          3.4580    -1.6460     0.6540 hc         1 ASK       0.049367
     17 HM3          2.5320    -0.5940     1.8020 hc         1 ASK       0.049367
@<TRIPOS>BOND
     1     1     2 1   
     2     1    10 1   
     3     1    11 1   
     4     2     3 1   
     5     2     7 1   
     6     2    12 1   
     7     3     4 1   
     8     3    13 1   
     9     3    14 1   
    10     4     5 1   
    11     4     6 1   
    12     7     8 2   
    13     7     9 1   
    14     9    15 1   
    15     9    16 1   
    16     9    17 1   
@<TRIPOS>SUBSTRUCTURE
     1 ASK         1 TEMP              0 ****  ****    0 ROOT
