@<TRIPOS>MOLECULE
ASO
   23    23     1     0     0
SMALL
bcc


@<TRIPOS>ATOM
      1 C1           1.7650     0.2080    -0.4740 c6         1 ASO       0.100400
      2 C2           0.8420    -0.2520    -1.5980 c6         1 ASO       0.076100
      3 C3          -0.5700     0.2280    -1.3020 c6         1 ASO       0.113100
      4 C4          -1.0000    -0.2160     0.0910 c6         1 ASO       0.122100
      5 C5           0.0420     0.2230     1.1230 c6         1 ASO       0.142100
      6 C6          -0.2920    -0.2900     2.5090 c3         1 ASO       0.148400
      7 O2           1.2320     0.2900    -2.8400 oh         1 ASO      -0.600800
      8 O3          -1.5160    -0.2770    -2.2170 oh         1 ASO      -0.606800
      9 O4          -2.2360     0.3540     0.4490 oh         1 ASO      -0.596800
     10 O5           1.3130    -0.2740     0.7690 os         1 ASO      -0.383600
     11 O6           0.6500     0.2190     3.4220 oh         1 ASO      -0.588800
     12 H11          1.8250     1.3070    -0.4760 h1         1 ASO       0.056700
     13 H12          2.7750    -0.1800    -0.6230 h1         1 ASO       0.056700
     14 H2           0.8430    -1.3510    -1.6300 h1         1 ASO       0.054700
     15 H3          -0.5640     1.3310    -1.3150 h1         1 ASO       0.055700
     16 H4          -1.0560    -1.3170     0.1050 h1         1 ASO       0.051700
     17 H5           0.0610     1.3260     1.1460 h1         1 ASO       0.060700
     18 H61         -0.2900    -1.3890     2.4920 h1         1 ASO       0.035200
     19 H62         -1.3100     0.0260     2.7590 h1         1 ASO       0.035200
     20 HO2          1.9920    -0.2030    -3.1650 ho         1 ASO       0.413000
     21 HO3         -1.3130     0.0760    -3.0890 ho         1 ASO       0.425000
     22 HO4         -2.8900     0.0910    -0.2070 ho         1 ASO       0.426000
     23 HO6          0.3890    -0.0600     4.3040 ho         1 ASO       0.404000
@<TRIPOS>BOND
     1     1     2 1   
     2     1    10 1   
     3     1    12 1   
     4     1    13 1   
     5     2     3 1   
     6     2     7 1   
     7     2    14 1   
     8     3     4 1   
     9     3     8 1   
    10     3    15 1   
    11     4     5 1   
    12     4     9 1   
    13     4    16 1   
    14     5     6 1   
    15     5    10 1   
    16     5    17 1   
    17     6    11 1   
    18     6    18 1   
    19     6    19 1   
    20     7    20 1   
    21     8    21 1   
    22     9    22 1   
    23    11    23 1   
@<TRIPOS>SUBSTRUCTURE
     1 ASO         1 TEMP              0 ****  ****    0 ROOT
