@<TRIPOS>MOLECULE
ASO
   23    23     1     0     0
SMALL
No Charge or Current Charge


@<TRIPOS>ATOM
      1 C1           1.7790     0.2470    -0.5310 c6         1 ASO       0.123600
      2 C2           0.8030    -0.2400    -1.6420 c6         1 ASO       0.099300
      3 C3          -0.6340     0.2530    -1.3020 c6         1 ASO       0.136300
      4 C4          -1.0480    -0.2220     0.1220 c6         1 ASO       0.145300
      5 C5           0.0190     0.2590     1.1560 c6         1 ASO       0.165300
      6 C6          -0.2830    -0.2490     2.6050 c3         1 ASO       0.171600
      7 O2           1.1970     0.2390    -2.9460 oh         1 ASO      -0.723000
      8 O3          -1.5670    -0.2150    -2.2910 oh         1 ASO      -0.669000
      9 O4          -2.3680     0.2660     0.4280 oh         1 ASO      -0.719000
     10 O5           1.3350    -0.2220     0.7640 os         1 ASO      -0.430000
     11 O6           0.7200     0.1350     3.5690 oh         1 ASO      -0.711000
     12 H11          1.8350     1.3450    -0.5210 h1         1 ASO       0.056700
     13 H12          2.7890    -0.1460    -0.7190 h1         1 ASO       0.056700
     14 H2           0.8030    -1.3410    -1.6330 h1         1 ASO       0.054700
     15 H3          -0.6190     1.3540    -1.3030 h1         1 ASO       0.055700
     16 H4          -1.0520    -1.3230     0.1280 h1         1 ASO       0.051700
     17 H5           0.0370     1.3590     1.1760 h1         1 ASO       0.060700
     18 H61         -0.3710    -1.3430     2.5700 h1         1 ASO       0.035200
     19 H62         -1.2620     0.1460     2.9100 h1         1 ASO       0.035200
     20 HO2          2.0580    -0.1890    -3.1700 ho         1 ASO       0.512000
     21 HO3         -1.0780    -0.1430    -3.1440 ho         1 ASO       0.464000
     22 HO4         -2.8680     0.1820    -0.4210 ho         1 ASO       0.525000
     23 HO6          0.4690    -0.2810     4.4270 ho         1 ASO       0.503000
@<TRIPOS>BOND
     1     1     2 1   
     2     1    10 1   
     3     1    12 1   
     4     1    13 1   
     5     2     3 1   
     6     2     7 1   
     7     2    14 1   
     8     3     4 1   
     9     3     8 1   
    10     3    15 1   
    11     4     5 1   
    12     4     9 1   
    13     4    16 1   
    14     5     6 1   
    15     5    10 1   
    16     5    17 1   
    17     6    11 1   
    18     6    18 1   
    19     6    19 1   
    20     7    20 1   
    21     8    21 1   
    22     9    22 1   
    23    11    23 1   
@<TRIPOS>SUBSTRUCTURE
     1 ASO         1 TEMP              0 ****  ****    0 ROOT
