@<TRIPOS>MOLECULE
ASS
   72    75     1     0     0
SMALL
No Charge or Current Charge


@<TRIPOS>ATOM
      1 CAA        -12.2790     2.0750    -0.7410 c3         1 ASS      -0.034900
      2 CAD        -10.7760     2.1310    -0.5720 c2         1 ASS      -0.314200
      3 CAE        -10.0260     1.1380    -0.0680 c2         1 ASS      -0.006000
      4 NBE         -8.6400     1.2130     0.0880 nh         1 ASS      -0.662400
      5 CAB         -7.8560     2.3960    -0.3590 c3         1 ASS       0.182100
      6 CAW         -7.9460     0.2590     0.9960 c3         1 ASS       0.264000
      7 CBA         -6.5110    -0.0760     0.6500 cc         1 ASS      -0.063300
      8 NBG         -6.0680    -0.7180    -0.5280 na         1 ASS      -0.072700
      9 CAC         -6.8840    -1.1880    -1.6610 c3         1 ASS       0.069900
     10 CAN         -5.3440     0.1620     1.3650 cd         1 ASS      -0.242200
     11 CBB         -4.1960    -0.3200     0.6420 ca         1 ASS      -0.060800
     12 CAM         -2.8310    -0.3040     0.9480 ca         1 ASS      -0.106000
     13 CBC         -4.6830    -0.8530    -0.5180 ca         1 ASS      -0.075200
     14 CAL         -3.8240    -1.4180    -1.4740 ca         1 ASS      -0.090000
     15 CAK         -2.4380    -1.4210    -1.2010 ca         1 ASS      -0.169000
     16 CAZ         -1.9380    -0.8640     0.0110 ca         1 ASS       0.114100
     17 OOX         -0.5920    -0.8460     0.3170 os         1 ASS      -0.355100
     18 CAP          0.4020    -1.3890    -0.5690 c3         1 ASS       0.166600
     19 CAO          1.7780    -1.1940     0.0950 c3         1 ASS      -0.080400
     20 H1         -12.6900     1.1170    -0.4000 hc         1 ASS       0.031700
     21 H2         -12.7680     2.8710    -0.1650 hc         1 ASS       0.031700
     22 H3         -12.5600     2.2030    -1.7930 hc         1 ASS       0.031700
     23 H4         -10.3350     3.0710    -0.9020 ha         1 ASS       0.173000
     24 H5         -10.4800     0.2010     0.2670 h4         1 ASS       0.172000
     25 H6          -8.2040     3.2990     0.1590 h1         1 ASS       0.038700
     26 H7          -6.7840     2.2880    -0.1570 h1         1 ASS       0.038700
     27 H8          -7.9800     2.5450    -1.4400 h1         1 ASS       0.038700
     28 H9          -7.9840     0.6450     2.0240 h1         1 ASS       0.050700
     29 H10         -8.4950    -0.6920     1.0030 h1         1 ASS       0.050700
     30 H11         -6.6720    -0.5720    -2.5440 h1         1 ASS       0.048367
     31 H12         -6.6420    -2.2350    -1.8800 h1         1 ASS       0.048367
     32 H13         -7.9500    -1.1120    -1.4180 h1         1 ASS       0.048367
     33 H14         -5.3080     0.6530     2.3340 ha         1 ASS       0.204000
     34 H15         -2.4690     0.1270     1.8780 ha         1 ASS       0.128000
     35 H16         -4.2080    -1.8420    -2.3990 ha         1 ASS       0.112000
     36 H17         -1.7680    -1.8570    -1.9370 ha         1 ASS       0.114000
     37 H18          0.2250    -2.4600    -0.7390 h1         1 ASS       0.029200
     38 H19          0.3850    -0.8700    -1.5360 h1         1 ASS       0.029200
     39 H20          1.9250    -0.1240     0.2820 hc         1 ASS       0.055200
     40 H21          1.7800    -1.6980     1.0690 hc         1 ASS       0.055200
     41 C17          2.9430    -1.7390    -0.7650 c3         1 ASS      -0.070400
     42 C18          4.3550    -1.6620    -0.1060 c6         1 ASS      -0.059700
     43 C19          5.4210    -2.3640    -0.9880 c6         1 ASS      -0.073400
     44 C20          6.8310    -2.2710    -0.3540 c6         1 ASS       0.171300
     45 N1           7.2290    -0.8590    -0.1050 n3         1 ASS      -0.728600
     46 C22          6.2440    -0.1700     0.7770 c6         1 ASS       0.171300
     47 C23          4.8140    -0.2060     0.1830 c6         1 ASS      -0.073400
     48 C24          8.6220    -0.7540     0.3930 c3         1 ASS       0.219100
     49 C25          9.1320     0.6830     0.4830 ca         1 ASS      -0.087300
     50 C26          9.3960     1.2720     1.7360 ca         1 ASS      -0.099500
     51 C27          9.8660     2.5940     1.8140 ca         1 ASS      -0.114500
     52 C28         10.0760     3.3370     0.6390 ca         1 ASS      -0.110000
     53 C29          9.8150     2.7560    -0.6130 ca         1 ASS      -0.114500
     54 C30          9.3450     1.4330    -0.6910 ca         1 ASS      -0.099500
     55 H22          2.7210    -2.7860    -1.0090 hc         1 ASS       0.039200
     56 H23          2.9530    -1.2020    -1.7220 hc         1 ASS       0.039200
     57 H24          4.2870    -2.2030     0.8490 hc         1 ASS       0.044700
     58 H25          5.1570    -3.4200    -1.1320 hc         1 ASS       0.046700
     59 H26          5.4420    -1.9070    -1.9870 hc         1 ASS       0.046700
     60 H27          6.8390    -2.8400     0.5880 h1         1 ASS       0.031700
     61 H28          7.5510    -2.7550    -1.0300 h1         1 ASS       0.031700
     62 H30          6.2310    -0.6420     1.7710 h1         1 ASS       0.031700
     63 H31          6.5270     0.8830     0.9240 h1         1 ASS       0.031700
     64 H32          4.7900     0.3860    -0.7430 hc         1 ASS       0.046700
     65 H33          4.1290     0.2820     0.8870 hc         1 ASS       0.046700
     66 H34          8.7030    -1.2290     1.3810 h1         1 ASS       0.036700
     67 H35          9.2950    -1.3050    -0.2780 h1         1 ASS       0.036700
     68 H36          9.2340     0.7050     2.6510 ha         1 ASS       0.117500
     69 H37         10.0670     3.0440     2.7840 ha         1 ASS       0.110500
     70 H38         10.4400     4.3600     0.7000 ha         1 ASS       0.111000
     71 H39          9.9760     3.3300    -1.5230 ha         1 ASS       0.110500
     72 H40          9.1400     0.9890    -1.6620 ha         1 ASS       0.117500
@<TRIPOS>BOND
     1     1     2 1   
     2     1    20 1   
     3     1    21 1   
     4     1    22 1   
     5     2     3 2   
     6     2    23 1   
     7     3     4 1   
     8     3    24 1   
     9     4     5 1   
    10     4     6 1   
    11     5    25 1   
    12     5    26 1   
    13     5    27 1   
    14     6     7 1   
    15     6    28 1   
    16     6    29 1   
    17     7     8 1   
    18     7    10 2   
    19     8     9 1   
    20     8    13 1   
    21     9    30 1   
    22     9    31 1   
    23     9    32 1   
    24    10    11 1   
    25    10    33 1   
    26    11    12 ar  
    27    11    13 ar  
    28    12    16 ar  
    29    12    34 1   
    30    13    14 ar  
    31    14    15 ar  
    32    14    35 1   
    33    15    16 ar  
    34    15    36 1   
    35    16    17 1   
    36    17    18 1   
    37    18    19 1   
    38    18    37 1   
    39    18    38 1   
    40    19    39 1   
    41    19    40 1   
    42    19    41 1   
    43    41    42 1   
    44    41    55 1   
    45    41    56 1   
    46    42    43 1   
    47    42    47 1   
    48    42    57 1   
    49    43    44 1   
    50    43    58 1   
    51    43    59 1   
    52    44    45 1   
    53    44    60 1   
    54    44    61 1   
    55    45    46 1   
    56    45    48 1   
    57    46    47 1   
    58    46    62 1   
    59    46    63 1   
    60    47    64 1   
    61    47    65 1   
    62    48    49 1   
    63    48    66 1   
    64    48    67 1   
    65    49    50 ar  
    66    49    54 ar  
    67    50    51 ar  
    68    50    68 1   
    69    51    52 ar  
    70    51    69 1   
    71    52    53 ar  
    72    52    70 1   
    73    53    54 ar  
    74    53    71 1   
    75    54    72 1   
@<TRIPOS>SUBSTRUCTURE
     1 ASS         1 TEMP              0 ****  ****    0 ROOT
