@<TRIPOS>MOLECULE
ASS
   72    75     1     0     0
SMALL
abcg2


@<TRIPOS>ATOM
      1 CAA        -11.9210     1.8470    -1.2610 c3         1 ASS      -0.034900
      2 CAD        -10.5390     2.0730    -0.7330 c2         1 ASS      -0.314200
      3 CAE         -9.6950     1.0700    -0.4600 c2         1 ASS      -0.006000
      4 NBE         -8.3780     1.1580    -0.0550 nh         1 ASS      -0.662400
      5 CAB         -7.8470     2.4670     0.2270 c3         1 ASS       0.182100
      6 CAW         -7.8810     0.0860     0.7890 c3         1 ASS       0.264000
      7 CBA         -6.4310    -0.1810     0.5710 cc         1 ASS      -0.063300
      8 NBG         -5.9480    -0.6340    -0.6290 na         1 ASS      -0.072700
      9 CAC         -6.7080    -0.8730    -1.8310 c3         1 ASS       0.069900
     10 CAN         -5.4000    -0.0270     1.4580 cd         1 ASS      -0.242200
     11 CBB         -4.2020    -0.3950     0.7770 ca         1 ASS      -0.060800
     12 CAM         -2.8540    -0.4430     1.1400 ca         1 ASS      -0.106000
     13 CBC         -4.5850    -0.7600    -0.5320 ca         1 ASS      -0.075200
     14 CAL         -3.6470    -1.1630    -1.4730 ca         1 ASS      -0.090000
     15 CAK         -2.3140    -1.2060    -1.0990 ca         1 ASS      -0.169000
     16 CAZ         -1.9160    -0.8470     0.2030 ca         1 ASS       0.114100
     17 OOX         -0.6240    -0.8660     0.6180 os         1 ASS      -0.355100
     18 CAP          0.3810    -1.2760    -0.2900 c3         1 ASS       0.166600
     19 CAO          1.7250    -1.2000     0.4060 c3         1 ASS      -0.080400
     20 H1         -12.1490     0.7830    -1.3480 hc         1 ASS       0.031700
     21 H2         -12.6800     2.2940    -0.6140 hc         1 ASS       0.031700
     22 H3         -12.0600     2.2910    -2.2510 hc         1 ASS       0.031700
     23 H4         -10.2360     3.1040    -0.5870 ha         1 ASS       0.173000
     24 H5         -10.0370     0.0470    -0.5960 h4         1 ASS       0.172000
     25 H6          -8.3370     2.9490     1.0830 h1         1 ASS       0.038700
     26 H7          -6.7820     2.3940     0.4430 h1         1 ASS       0.038700
     27 H8          -7.9650     3.1190    -0.6400 h1         1 ASS       0.038700
     28 H9          -8.0340     0.2980     1.8550 h1         1 ASS       0.050700
     29 H10         -8.4620    -0.8150     0.5720 h1         1 ASS       0.050700
     30 H11         -6.7190     0.0010    -2.4840 h1         1 ASS       0.048367
     31 H12         -6.2760    -1.7110    -2.3760 h1         1 ASS       0.048367
     32 H13         -7.7340    -1.1340    -1.5870 h1         1 ASS       0.048367
     33 H14         -5.4980     0.3130     2.4770 ha         1 ASS       0.204000
     34 H15         -2.5360    -0.1630     2.1380 ha         1 ASS       0.128000
     35 H16         -3.9310    -1.4380    -2.4810 ha         1 ASS       0.112000
     36 H17         -1.5870    -1.5190    -1.8350 ha         1 ASS       0.114000
     37 H18          0.1950    -2.3020    -0.6310 h1         1 ASS       0.029200
     38 H19          0.3820    -0.6330    -1.1790 h1         1 ASS       0.029200
     39 H20          1.8940    -0.1770     0.7530 hc         1 ASS       0.055200
     40 H21          1.7150    -1.8440     1.2900 hc         1 ASS       0.055200
     41 C17          2.8440    -1.6380    -0.5330 c3         1 ASS      -0.070400
     42 C18          4.2360    -1.6350     0.0940 c6         1 ASS      -0.059700
     43 C19          5.2540    -2.2810    -0.8420 c6         1 ASS      -0.073400
     44 C20          6.6600    -2.2330    -0.2660 c6         1 ASS       0.171300
     45 N1           7.0490    -0.8670     0.0230 n3         1 ASS      -0.728600
     46 C22          6.1490    -0.2590     0.9850 c6         1 ASS       0.171300
     47 C23          4.7200    -0.2350     0.4640 c6         1 ASS      -0.073400
     48 C24          8.4330    -0.7590     0.4240 c3         1 ASS       0.219100
     49 C25          8.9580     0.6520     0.3270 ca         1 ASS      -0.087300
     50 C26          9.8450     1.1470     1.2780 ca         1 ASS      -0.099500
     51 C27         10.3680     2.4300     1.1650 ca         1 ASS      -0.114500
     52 C28         10.0050     3.2380     0.0970 ca         1 ASS      -0.110000
     53 C29          9.1140     2.7540    -0.8550 ca         1 ASS      -0.114500
     54 C30          8.5970     1.4720    -0.7400 ca         1 ASS      -0.099500
     55 H22          2.6240    -2.6470    -0.8960 hc         1 ASS       0.039200
     56 H23          2.8540    -0.9900    -1.4180 hc         1 ASS       0.039200
     57 H24          4.2050    -2.2360     1.0130 hc         1 ASS       0.044700
     58 H25          4.9790    -3.3210    -1.0390 hc         1 ASS       0.046700
     59 H26          5.2470    -1.7620    -1.8060 hc         1 ASS       0.046700
     60 H27          6.7050    -2.8690     0.6360 h1         1 ASS       0.031700
     61 H28          7.3670    -2.6560    -0.9840 h1         1 ASS       0.031700
     62 H30          6.1740    -0.7990     1.9490 h1         1 ASS       0.031700
     63 H31          6.4820     0.7600     1.1900 h1         1 ASS       0.031700
     64 H32          4.6710     0.4100    -0.4200 hc         1 ASS       0.046700
     65 H33          4.0770     0.2150     1.2250 hc         1 ASS       0.046700
     66 H34          8.6110    -1.1430     1.4430 h1         1 ASS       0.036700
     67 H35          9.0250    -1.3940    -0.2430 h1         1 ASS       0.036700
     68 H36         10.1300     0.5250     2.1200 ha         1 ASS       0.117500
     69 H37         11.0540     2.8000     1.9170 ha         1 ASS       0.110500
     70 H38         10.4060     4.2390     0.0080 ha         1 ASS       0.111000
     71 H39          8.8200     3.3800    -1.6880 ha         1 ASS       0.110500
     72 H40          7.8940     1.0990    -1.4750 ha         1 ASS       0.117500
@<TRIPOS>BOND
     1     1     2 1   
     2     1    20 1   
     3     1    21 1   
     4     1    22 1   
     5     2     3 2   
     6     2    23 1   
     7     3     4 1   
     8     3    24 1   
     9     4     5 1   
    10     4     6 1   
    11     5    25 1   
    12     5    26 1   
    13     5    27 1   
    14     6     7 1   
    15     6    28 1   
    16     6    29 1   
    17     7     8 1   
    18     7    10 2   
    19     8     9 1   
    20     8    13 1   
    21     9    30 1   
    22     9    31 1   
    23     9    32 1   
    24    10    11 1   
    25    10    33 1   
    26    11    12 ar  
    27    11    13 ar  
    28    12    16 ar  
    29    12    34 1   
    30    13    14 ar  
    31    14    15 ar  
    32    14    35 1   
    33    15    16 ar  
    34    15    36 1   
    35    16    17 1   
    36    17    18 1   
    37    18    19 1   
    38    18    37 1   
    39    18    38 1   
    40    19    39 1   
    41    19    40 1   
    42    19    41 1   
    43    41    42 1   
    44    41    55 1   
    45    41    56 1   
    46    42    43 1   
    47    42    47 1   
    48    42    57 1   
    49    43    44 1   
    50    43    58 1   
    51    43    59 1   
    52    44    45 1   
    53    44    60 1   
    54    44    61 1   
    55    45    46 1   
    56    45    48 1   
    57    46    47 1   
    58    46    62 1   
    59    46    63 1   
    60    47    64 1   
    61    47    65 1   
    62    48    49 1   
    63    48    66 1   
    64    48    67 1   
    65    49    50 ar  
    66    49    54 ar  
    67    50    51 ar  
    68    50    68 1   
    69    51    52 ar  
    70    51    69 1   
    71    52    53 ar  
    72    52    70 1   
    73    53    54 ar  
    74    53    71 1   
    75    54    72 1   
@<TRIPOS>SUBSTRUCTURE
     1 ASS         1 TEMP              0 ****  ****    0 ROOT
