@<TRIPOS>MOLECULE
ASV
   42    41     1     0     0
SMALL
abcg2


@<TRIPOS>ATOM
      1 C1          -1.6710     0.0800     6.6890 c          1 ASV       0.724000
      2 C2          -0.8190     0.7980     5.6220 c3         1 ASV       0.022500
      3 C3          -0.6990    -0.1310     4.4020 c3         1 ASV      -0.103400
      4 C4           0.0070     0.5000     3.2080 c3         1 ASV      -0.067400
      5 C7           0.0690    -0.4560     2.0290 c3         1 ASV      -0.155400
      6 C10          0.7450     0.1170     0.8010 c          1 ASV       0.611100
      7 N11          0.7300    -0.7070    -0.2680 ns         1 ASV      -0.498900
      8 C12          1.3140    -0.3890    -1.5410 c3         1 ASV       0.039700
      9 C13          0.3950    -0.9230    -2.6410 c          1 ASV       0.592100
     10 N14          0.4500     1.2240     6.1920 n8         1 ASV      -0.996200
     11 O15          1.2600     1.2230     0.7730 o          1 ASV      -0.617100
     12 C16          2.6920    -1.0280    -1.7350 c3         1 ASV       0.062600
     13 S17          3.8520    -0.4090    -0.4750 sh         1 ASV      -0.420800
     14 O18         -0.1540    -2.0070    -2.5170 o          1 ASV      -0.606100
     15 O19         -1.0580    -0.5280     7.5890 o          1 ASV      -0.739500
     16 O20         -2.9070     0.1230     6.5300 o          1 ASV      -0.739500
     17 N29          0.3150    -0.1690    -3.7380 ns         1 ASV      -0.456900
     18 C30         -0.5140    -0.5420    -4.8680 c3         1 ASV      -0.023100
     19 C31         -2.0180    -0.6940    -4.4720 c          1 ASV       0.732000
     20 C32         -0.4250     0.5320    -5.9040 c2         1 ASV      -0.168200
     21 C33         -0.0980     0.3330    -7.1740 c2         1 ASV      -0.371000
     22 O42         -2.6550    -1.5320    -5.1310 o          1 ASV      -0.707500
     23 O43         -2.4330     0.0760    -3.5930 o          1 ASV      -0.707500
     24 H2          -1.3630     1.6940     5.2970 h1         1 ASV       0.045700
     25 H3C1        -0.1730    -1.0460     4.7010 hc         1 ASV       0.040700
     26 H3C2        -1.7050    -0.4370     4.0980 hc         1 ASV       0.040700
     27 H4C1        -0.5160     1.4160     2.9200 hc         1 ASV       0.042200
     28 H4C2         1.0240     0.7940     3.4790 hc         1 ASV       0.042200
     29 H7C1         0.6020    -1.3690     2.3170 hc         1 ASV       0.056700
     30 H7C2        -0.9400    -0.7790     1.7520 hc         1 ASV       0.056700
     31 H11          0.2820    -1.6070    -0.1910 hn         1 ASV       0.333500
     32 H12          1.4100     0.6960    -1.6120 h1         1 ASV       0.089700
     33 H141         0.8590     0.4320     6.6730 hn         1 ASV       0.376500
     34 H142         1.0970     1.4880     5.4600 hn         1 ASV       0.376500
     35 H161         2.6090    -2.1120    -1.6560 h1         1 ASV       0.061200
     36 H162         3.0690    -0.7870    -2.7290 h1         1 ASV       0.061200
     37 H17          4.8930    -1.1540    -0.8630 hs         1 ASV       0.170800
     38 H29          0.7370     0.7440    -3.7310 hn         1 ASV       0.297500
     39 H30         -0.1530    -1.4860    -5.2870 h1         1 ASV       0.054700
     40 H321        -0.6980     1.5320    -5.5740 ha         1 ASV       0.163000
     41 H331         0.1740    -0.6470    -7.5470 ha         1 ASV       0.142000
     42 H332        -0.0960     1.1420    -7.8910 ha         1 ASV       0.142000
@<TRIPOS>BOND
     1     1     2 1   
     2     1    15 1   
     3     1    16 1   
     4     2     3 1   
     5     2    10 1   
     6     2    24 1   
     7     3     4 1   
     8     3    25 1   
     9     3    26 1   
    10     4     5 1   
    11     4    27 1   
    12     4    28 1   
    13     5     6 1   
    14     5    29 1   
    15     5    30 1   
    16     6     7 1   
    17     6    11 2   
    18     7     8 1   
    19     7    31 1   
    20     8     9 1   
    21     8    12 1   
    22     8    32 1   
    23     9    14 2   
    24     9    17 1   
    25    10    33 1   
    26    10    34 1   
    27    12    13 1   
    28    12    35 1   
    29    12    36 1   
    30    13    37 1   
    31    17    18 1   
    32    17    38 1   
    33    18    19 1   
    34    18    20 1   
    35    18    39 1   
    36    19    22 1   
    37    19    23 1   
    38    20    21 2   
    39    20    40 1   
    40    21    41 1   
    41    21    42 1   
@<TRIPOS>SUBSTRUCTURE
     1 ASV         1 TEMP              0 ****  ****    0 ROOT
