@<TRIPOS>MOLECULE
ASV
   42    41     1     0     0
SMALL
No Charge or Current Charge


@<TRIPOS>ATOM
      1 C1          -0.3870    -0.3400     7.1430 c          1 ASV       0.724000
      2 C2           0.3020     0.0750     5.7730 c3         1 ASV       0.022500
      3 C3          -0.6120    -0.2760     4.5670 c3         1 ASV      -0.103400
      4 C4          -0.1990     0.3890     3.2300 c3         1 ASV      -0.067400
      5 C7          -1.1800     0.0750     2.0750 c3         1 ASV      -0.155400
      6 C10         -0.7410     0.7430     0.7670 c          1 ASV       0.611100
      7 N11         -0.2220    -0.1140    -0.1770 ns         1 ASV      -0.498900
      8 C12          0.3130     0.2930    -1.5010 c3         1 ASV       0.039700
      9 C13         -0.1890    -0.6640    -2.6180 c          1 ASV       0.592100
     10 N14          1.6960    -0.4490     5.5370 n8         1 ASV      -0.996200
     11 O15         -0.8820     1.9410     0.5610 o          1 ASV      -0.617100
     12 C16          1.8620     0.3490    -1.4930 c3         1 ASV       0.062600
     13 S17          2.6060     1.4030    -0.1570 sh         1 ASV      -0.420800
     14 O18         -0.7230    -1.7440    -2.3850 o          1 ASV      -0.606100
     15 O19         -0.5240    -1.5320     7.3960 o          1 ASV      -0.739500
     16 O20         -0.6950     0.5460     7.9310 o          1 ASV      -0.739500
     17 N29          0.0080    -0.2130    -3.9070 ns         1 ASV      -0.456900
     18 C30         -0.3750    -0.9520    -5.1290 c3         1 ASV      -0.023100
     19 C31         -1.9160    -0.8570    -5.3950 c          1 ASV       0.732000
     20 C32          0.4690    -0.4490    -6.2890 c2         1 ASV      -0.168200
     21 C33          1.8020    -0.5750    -6.3810 c2         1 ASV      -0.371000
     22 O42         -2.5170    -1.8860    -5.6770 o          1 ASV      -0.707500
     23 O43         -2.4530     0.2440    -5.3590 o          1 ASV      -0.707500
     24 H2           0.3810     1.1710     5.8000 h1         1 ASV       0.045700
     25 H3C1        -0.6510    -1.3650     4.4400 hc         1 ASV       0.040700
     26 H3C2        -1.6330     0.0440     4.8080 hc         1 ASV       0.040700
     27 H4C1        -0.1440     1.4760     3.3690 hc         1 ASV       0.042200
     28 H4C2         0.8040     0.0530     2.9410 hc         1 ASV       0.042200
     29 H7C1        -1.2220    -1.0130     1.9440 hc         1 ASV       0.056700
     30 H7C2        -2.1720     0.4550     2.3470 hc         1 ASV       0.056700
     31 H11         -0.1950    -1.0970     0.0690 hn         1 ASV       0.333500
     32 H12         -0.0680     1.2920    -1.7490 h1         1 ASV       0.089700
     33 H141         1.6710    -1.4760     5.5800 hn         1 ASV       0.376500
     34 H142         1.9690    -0.2490     4.5690 hn         1 ASV       0.376500
     35 H161         2.2540    -0.6690    -1.3720 h1         1 ASV       0.061200
     36 H162         2.2190     0.7280    -2.4600 h1         1 ASV       0.061200
     37 H17          3.8990     1.1760    -0.4890 hs         1 ASV       0.170800
     38 H29          0.4380     0.6980    -4.0180 hn         1 ASV       0.297500
     39 H30         -0.1420    -2.0130    -4.9690 h1         1 ASV       0.054700
     40 H321        -0.0970     0.0450    -7.0830 ha         1 ASV       0.163000
     41 H331         2.3860    -1.0650    -5.6010 ha         1 ASV       0.142000
     42 H332         2.3520    -0.1920    -7.2420 ha         1 ASV       0.142000
@<TRIPOS>BOND
     1     1     2 1   
     2     1    15 1   
     3     1    16 1   
     4     2     3 1   
     5     2    10 1   
     6     2    24 1   
     7     3     4 1   
     8     3    25 1   
     9     3    26 1   
    10     4     5 1   
    11     4    27 1   
    12     4    28 1   
    13     5     6 1   
    14     5    29 1   
    15     5    30 1   
    16     6     7 1   
    17     6    11 2   
    18     7     8 1   
    19     7    31 1   
    20     8     9 1   
    21     8    12 1   
    22     8    32 1   
    23     9    14 2   
    24     9    17 1   
    25    10    33 1   
    26    10    34 1   
    27    12    13 1   
    28    12    35 1   
    29    12    36 1   
    30    13    37 1   
    31    17    18 1   
    32    17    38 1   
    33    18    19 1   
    34    18    20 1   
    35    18    39 1   
    36    19    22 1   
    37    19    23 1   
    38    20    21 2   
    39    20    40 1   
    40    21    41 1   
    41    21    42 1   
@<TRIPOS>SUBSTRUCTURE
     1 ASV         1 TEMP              0 ****  ****    0 ROOT
