@<TRIPOS>MOLECULE
ASW
   47    50     1     0     0
SMALL
No Charge or Current Charge


@<TRIPOS>ATOM
      1 C1           1.6910     3.5410     2.6090 c3         1 ASW       0.147900
      2 O2           0.7920     2.6270     1.9540 os         1 ASW      -0.340100
      3 C3           1.2380     1.5990     1.1340 ca         1 ASW       0.118100
      4 C4           2.6150     1.3890     0.8870 ca         1 ASW      -0.210000
      5 C5           3.0400     0.3480     0.0480 ca         1 ASW       0.240000
      6 N6           4.4110     0.1960    -0.1510 nu         1 ASW      -0.863100
      7 S7           5.2800    -1.1400    -0.6220 s6         1 ASW       1.183100
      8 C8           4.8320    -2.4120     0.5420 c3         1 ASW      -0.381100
      9 O9           4.8030    -1.5060    -1.9570 o          1 ASW      -0.523500
     10 O10          6.6800    -0.7750    -0.4060 o          1 ASW      -0.523500
     11 C11          2.0790    -0.4800    -0.5650 ca         1 ASW      -0.091000
     12 C12          0.7090    -0.2790    -0.3260 ca         1 ASW      -0.109000
     13 C13          0.2760     0.7480     0.5310 ca         1 ASW       0.267000
     14 N14         -1.0930     0.9540     0.7660 nu         1 ASW      -0.977000
     15 C15         -2.2500     0.3120     0.2950 ca         1 ASW       0.365000
     16 C16         -3.1920     1.0390    -0.4680 ca         1 ASW      -0.128500
     17 C17         -3.0070     2.4100    -0.7830 ca         1 ASW      -0.084000
     18 C18         -3.9600     3.0990    -1.5500 ca         1 ASW      -0.118000
     19 C19         -5.1000     2.4310    -2.0140 ca         1 ASW      -0.091000
     20 C20         -5.2830     1.0730    -1.7110 ca         1 ASW      -0.096500
     21 C21         -4.3400     0.3640    -0.9430 ca         1 ASW       0.313500
     22 N22         -4.5610    -0.9410    -0.6860 nb         1 ASW      -0.684000
     23 C23         -3.6780    -1.6400     0.0550 ca         1 ASW       0.313500
     24 C24         -3.9420    -2.9970     0.3210 ca         1 ASW      -0.096500
     25 C25         -3.0690    -3.7680     1.1060 ca         1 ASW      -0.091000
     26 C26         -1.9180    -3.1790     1.6450 ca         1 ASW      -0.118000
     27 C27         -1.6370    -1.8280     1.3900 ca         1 ASW      -0.084000
     28 C28         -2.5040    -1.0500     0.5800 ca         1 ASW      -0.128500
     29 H1           1.1250     4.2680     3.2040 h1         1 ASW       0.043700
     30 H2           2.3690     3.0040     3.2840 h1         1 ASW       0.043700
     31 H3           2.2880     4.0950     1.8740 h1         1 ASW       0.043700
     32 H4           3.3650     2.0280     1.3420 ha         1 ASW       0.117000
     33 H5           5.0410     0.7570     0.4060 hn         1 ASW       0.486000
     34 H6           3.7580    -2.5930     0.4460 h1         1 ASW       0.102700
     35 H7           5.4080    -3.3070     0.2860 h1         1 ASW       0.102700
     36 H8           5.0870    -2.0500     1.5420 h1         1 ASW       0.102700
     37 H9           2.3780    -1.2770    -1.2370 ha         1 ASW       0.153000
     38 H10         -0.0160    -0.9220    -0.8160 ha         1 ASW       0.140000
     39 H11         -1.2770     1.8530     1.2140 hn         1 ASW       0.502000
     40 H12         -2.1280     2.9540    -0.4460 ha         1 ASW       0.112500
     41 H13         -3.8110     4.1500    -1.7870 ha         1 ASW       0.114500
     42 H14         -5.8400     2.9620    -2.6100 ha         1 ASW       0.117000
     43 H15         -6.1670     0.5580    -2.0770 ha         1 ASW       0.132000
     44 H16         -4.8400    -3.4540    -0.0850 ha         1 ASW       0.132000
     45 H17         -3.2910    -4.8150     1.3020 ha         1 ASW       0.117000
     46 H18         -1.2450    -3.7670     2.2640 ha         1 ASW       0.114500
     47 H19         -0.7460    -1.3950     1.8360 ha         1 ASW       0.112500
@<TRIPOS>BOND
     1     1     2 1   
     2     1    29 1   
     3     1    30 1   
     4     1    31 1   
     5     2     3 1   
     6     3     4 ar  
     7     3    13 ar  
     8     4     5 ar  
     9     4    32 1   
    10     5     6 1   
    11     5    11 ar  
    12     6     7 1   
    13     6    33 1   
    14     7     8 1   
    15     7     9 2   
    16     7    10 2   
    17     8    34 1   
    18     8    35 1   
    19     8    36 1   
    20    11    12 ar  
    21    11    37 1   
    22    12    13 ar  
    23    12    38 1   
    24    13    14 1   
    25    14    15 1   
    26    14    39 1   
    27    15    16 ar  
    28    15    28 ar  
    29    16    17 ar  
    30    16    21 ar  
    31    17    18 ar  
    32    17    40 1   
    33    18    19 ar  
    34    18    41 1   
    35    19    20 ar  
    36    19    42 1   
    37    20    21 ar  
    38    20    43 1   
    39    21    22 ar  
    40    22    23 ar  
    41    23    24 ar  
    42    23    28 ar  
    43    24    25 ar  
    44    24    44 1   
    45    25    26 ar  
    46    25    45 1   
    47    26    27 ar  
    48    26    46 1   
    49    27    28 ar  
    50    27    47 1   
@<TRIPOS>SUBSTRUCTURE
     1 ASW         1 TEMP              0 ****  ****    0 ROOT
