@<TRIPOS>MOLECULE
ASW
   47    50     1     0     0
SMALL
bcc


@<TRIPOS>ATOM
      1 C1           1.9000     2.8740     2.8100 c3         1 ASW       0.124700
      2 O2           0.9130     2.2540     2.0070 os         1 ASW      -0.316900
      3 C3           1.3080     1.4440     1.0100 ca         1 ASW       0.118100
      4 C4           2.6280     1.1170     0.7400 ca         1 ASW      -0.228000
      5 C5           2.9410     0.2720    -0.3250 ca         1 ASW       0.101600
      6 N6           4.3000    -0.0360    -0.5920 nu         1 ASW      -0.669500
      7 S7           4.8620    -1.5750    -0.2910 s6         1 ASW       1.213900
      8 C8           4.5780    -1.8780     1.4380 c3         1 ASW      -0.270300
      9 O9           4.0410    -2.4990    -1.0540 o          1 ASW      -0.594300
     10 O10          6.2940    -1.5190    -0.5340 o          1 ASW      -0.594300
     11 C11          1.9330    -0.2390    -1.1260 ca         1 ASW      -0.109000
     12 C12          0.6130     0.0830    -0.8480 ca         1 ASW      -0.127000
     13 C13          0.2790     0.9060     0.2170 ca         1 ASW       0.128600
     14 N14         -1.0430     1.2390     0.5270 nu         1 ASW      -0.645000
     15 C15         -2.1460     0.5110     0.1430 ca         1 ASW       0.226600
     16 C16         -3.2290     1.1470    -0.4940 ca         1 ASW      -0.193800
     17 C17         -3.2330     2.5300    -0.8260 ca         1 ASW      -0.102000
     18 C18         -4.3100     3.1010    -1.4350 ca         1 ASW      -0.136000
     19 C19         -5.4470     2.3200    -1.7590 ca         1 ASW      -0.109000
     20 C20         -5.4690     0.9870    -1.4840 ca         1 ASW      -0.179800
     21 C21         -4.3620     0.3510    -0.8520 ca         1 ASW       0.444100
     22 N22         -4.4300    -0.9620    -0.6460 nb         1 ASW      -0.684000
     23 C23         -3.4080    -1.5600    -0.0350 ca         1 ASW       0.444100
     24 C24         -3.5050    -2.9620     0.2020 ca         1 ASW      -0.179800
     25 C25         -2.5340    -3.6240     0.8870 ca         1 ASW      -0.109000
     26 C26         -1.4100    -2.9240     1.3930 ca         1 ASW      -0.136000
     27 C27         -1.2700    -1.5890     1.1640 ca         1 ASW      -0.102000
     28 C28         -2.2430    -0.8690     0.4170 ca         1 ASW      -0.193800
     29 H1           1.3690     3.5000     3.5220 h1         1 ASW       0.043700
     30 H2           2.4950     2.1410     3.3600 h1         1 ASW       0.043700
     31 H3           2.5690     3.5020     2.2170 h1         1 ASW       0.043700
     32 H4           3.4310     1.5000     1.3560 ha         1 ASW       0.135000
     33 H5           4.9590     0.6620    -0.2610 hn         1 ASW       0.430800
     34 H6           3.5160    -1.7880     1.6550 h1         1 ASW       0.102700
     35 H7           4.9130    -2.8910     1.6560 h1         1 ASW       0.102700
     36 H8           5.1480    -1.1620     2.0250 h1         1 ASW       0.102700
     37 H9           2.1670    -0.8600    -1.9780 ha         1 ASW       0.171000
     38 H10         -0.1700    -0.3090    -1.4840 ha         1 ASW       0.158000
     39 H11         -1.2020     2.2140     0.7320 hn         1 ASW       0.446800
     40 H12         -2.3700     3.1460    -0.6110 ha         1 ASW       0.130500
     41 H13         -4.2950     4.1540    -1.6830 ha         1 ASW       0.132500
     42 H14         -6.2970     2.7880    -2.2380 ha         1 ASW       0.135000
     43 H15         -6.3240     0.3760    -1.7400 ha         1 ASW       0.150000
     44 H16         -4.3820    -3.4770    -0.1700 ha         1 ASW       0.150000
     45 H17         -2.6250    -4.6880     1.0660 ha         1 ASW       0.135000
     46 H18         -0.6660    -3.4540     1.9720 ha         1 ASW       0.132500
     47 H19         -0.4150    -1.0710     1.5750 ha         1 ASW       0.130500
@<TRIPOS>BOND
     1     1     2 1   
     2     1    29 1   
     3     1    30 1   
     4     1    31 1   
     5     2     3 1   
     6     3     4 ar  
     7     3    13 ar  
     8     4     5 ar  
     9     4    32 1   
    10     5     6 1   
    11     5    11 ar  
    12     6     7 1   
    13     6    33 1   
    14     7     8 1   
    15     7     9 2   
    16     7    10 2   
    17     8    34 1   
    18     8    35 1   
    19     8    36 1   
    20    11    12 ar  
    21    11    37 1   
    22    12    13 ar  
    23    12    38 1   
    24    13    14 1   
    25    14    15 1   
    26    14    39 1   
    27    15    16 ar  
    28    15    28 ar  
    29    16    17 ar  
    30    16    21 ar  
    31    17    18 ar  
    32    17    40 1   
    33    18    19 ar  
    34    18    41 1   
    35    19    20 ar  
    36    19    42 1   
    37    20    21 ar  
    38    20    43 1   
    39    21    22 ar  
    40    22    23 ar  
    41    23    24 ar  
    42    23    28 ar  
    43    24    25 ar  
    44    24    44 1   
    45    25    26 ar  
    46    25    45 1   
    47    26    27 ar  
    48    26    46 1   
    49    27    28 ar  
    50    27    47 1   
@<TRIPOS>SUBSTRUCTURE
     1 ASW         1 TEMP              0 ****  ****    0 ROOT
