@<TRIPOS>MOLECULE
ASY
   52    51     1     0     0
SMALL
No Charge or Current Charge


@<TRIPOS>ATOM
      1 C9           1.2080     0.2420     1.5810 c3         1 ASY      -0.179400
      2 C8          -0.2290     0.8130     1.5840 c3         1 ASY      -0.066400
      3 C7          -1.2230    -0.0530     0.7790 c3         1 ASY      -0.076400
      4 C6          -2.6590     0.5160     0.7810 c3         1 ASY      -0.075400
      5 C5          -3.6520    -0.3490    -0.0250 c3         1 ASY      -0.075400
      6 C4          -5.0880     0.2190    -0.0240 c3         1 ASY      -0.079400
      7 C3          -6.0830    -0.6460    -0.8300 c3         1 ASY      -0.053400
      8 C2          -7.5240    -0.0790    -0.8300 c3         1 ASY      -0.204400
      9 C1          -8.4540    -0.9910    -1.6500 c          1 ASY       0.717000
     10 O2          -8.5610    -0.7790    -2.8480 o          1 ASY      -0.744000
     11 O1          -9.0090    -1.9150    -1.0750 o          1 ASY      -0.744000
     12 C10          2.1670     1.1380     2.3790 c          1 ASY       0.571100
     13 O10          2.3000     1.0140     3.5900 o          1 ASY      -0.515100
     14 C11          2.9580     2.1920     1.5850 c3         1 ASY      -0.151200
     15 C12          4.3950     1.7610     1.3420 c2         1 ASY      -0.199200
     16 C13          4.9400     1.5420     0.1360 c2         1 ASY      -0.218200
     17 C14          6.3700     1.1090    -0.1110 c3         1 ASY      -0.038200
     18 C15          6.4490    -0.3010    -0.7330 c3         1 ASY      -0.073400
     19 C16          7.8980    -0.7710    -0.9910 c3         1 ASY      -0.075400
     20 C17          7.9740    -2.1820    -1.6130 c3         1 ASY      -0.075400
     21 C18          9.4190    -2.6510    -1.8710 c3         1 ASY      -0.088100
     22 H9           1.1940    -0.7610     2.0260 hc         1 ASY       0.057200
     23 H9A          1.5400     0.1940     0.5370 hc         1 ASY       0.057200
     24 H8          -0.5820     0.8980     2.6200 hc         1 ASY       0.050200
     25 H8A         -0.2170     1.8290     1.1680 hc         1 ASY       0.050200
     26 H7          -0.8700    -0.1370    -0.2560 hc         1 ASY       0.033700
     27 H7A         -1.2370    -1.0670     1.1970 hc         1 ASY       0.033700
     28 H6          -3.0120     0.6000     1.8160 hc         1 ASY       0.034700
     29 H6A         -2.6450     1.5310     0.3640 hc         1 ASY       0.034700
     30 H5          -3.2990    -0.4330    -1.0600 hc         1 ASY       0.033700
     31 H5A         -3.6660    -1.3640     0.3920 hc         1 ASY       0.033700
     32 H4          -5.4410     0.3030     1.0120 hc         1 ASY       0.024700
     33 H4A         -5.0740     1.2340    -0.4410 hc         1 ASY       0.024700
     34 H3          -5.7290    -0.7310    -1.8650 hc         1 ASY       0.037700
     35 H3A         -6.0960    -1.6610    -0.4130 hc         1 ASY       0.037700
     36 H2          -7.8370    -0.0550     0.2210 hc         1 ASY       0.014700
     37 H2A         -7.4550     0.9140    -1.2920 hc         1 ASY       0.014700
     38 H11          2.4640     2.3600     0.6210 hc         1 ASY       0.063200
     39 H11A         2.9600     3.1270     2.1570 hc         1 ASY       0.063200
     40 H12          4.9890     1.6290     2.2510 ha         1 ASY       0.178000
     41 H13          4.3480     1.6740    -0.7730 ha         1 ASY       0.163000
     42 H14          6.8630     1.8270    -0.7770 hc         1 ASY       0.041700
     43 H14A         6.9370     1.1150     0.8290 hc         1 ASY       0.041700
     44 H15          5.9510    -1.0150    -0.0650 hc         1 ASY       0.043200
     45 H15A         5.8930    -0.3070    -1.6790 hc         1 ASY       0.043200
     46 H16          8.3950    -0.0550    -1.6580 hc         1 ASY       0.035200
     47 H16A         8.4520    -0.7640    -0.0440 hc         1 ASY       0.035200
     48 H17          7.4790    -2.9000    -0.9480 hc         1 ASY       0.038200
     49 H17A         7.4220    -2.1920    -2.5610 hc         1 ASY       0.038200
     50 H18          9.9880    -2.6860    -0.9340 hc         1 ASY       0.029367
     51 H18A         9.4220    -3.6550    -2.3120 hc         1 ASY       0.029367
     52 H18B         9.9300    -1.9710    -2.5620 hc         1 ASY       0.029367
@<TRIPOS>BOND
     1     1     2 1   
     2     1    12 1   
     3     1    22 1   
     4     1    23 1   
     5     2     3 1   
     6     2    24 1   
     7     2    25 1   
     8     3     4 1   
     9     3    26 1   
    10     3    27 1   
    11     4     5 1   
    12     4    28 1   
    13     4    29 1   
    14     5     6 1   
    15     5    30 1   
    16     5    31 1   
    17     6     7 1   
    18     6    32 1   
    19     6    33 1   
    20     7     8 1   
    21     7    34 1   
    22     7    35 1   
    23     8     9 1   
    24     8    36 1   
    25     8    37 1   
    26     9    10 1   
    27     9    11 1   
    28    12    13 2   
    29    12    14 1   
    30    14    15 1   
    31    14    38 1   
    32    14    39 1   
    33    15    16 2   
    34    15    40 1   
    35    16    17 1   
    36    16    41 1   
    37    17    18 1   
    38    17    42 1   
    39    17    43 1   
    40    18    19 1   
    41    18    44 1   
    42    18    45 1   
    43    19    20 1   
    44    19    46 1   
    45    19    47 1   
    46    20    21 1   
    47    20    48 1   
    48    20    49 1   
    49    21    50 1   
    50    21    51 1   
    51    21    52 1   
@<TRIPOS>SUBSTRUCTURE
     1 ASY         1 TEMP              0 ****  ****    0 ROOT
