@<TRIPOS>MOLECULE
ASY
   52    51     1     0     0
SMALL
abcg2


@<TRIPOS>ATOM
      1 C9           0.6320     1.3250    -0.1180 c3         1 ASY      -0.179400
      2 C8          -0.4880     0.4060     0.3410 c3         1 ASY      -0.066400
      3 C7          -1.8470     0.8620    -0.1750 c3         1 ASY      -0.076400
      4 C6          -2.9920    -0.0290     0.2900 c3         1 ASY      -0.075400
      5 C5          -4.3540     0.4250    -0.2210 c3         1 ASY      -0.075400
      6 C4          -5.5010    -0.4520     0.2660 c3         1 ASY      -0.079400
      7 C3          -6.8670     0.0020    -0.2350 c3         1 ASY      -0.053400
      8 C2          -7.9980    -0.8830     0.2640 c3         1 ASY      -0.204400
      9 C1          -9.4170    -0.4950    -0.1880 c          1 ASY       0.717000
     10 O2          -9.5560     0.5550    -0.8460 o          1 ASY      -0.744000
     11 O1         -10.3310    -1.2760     0.1560 o          1 ASY      -0.744000
     12 C10          2.0120     0.9480     0.3560 c          1 ASY       0.571100
     13 O10          2.2280    -0.0480     1.0080 o          1 ASY      -0.515100
     14 C11          3.1170     1.9070    -0.0370 c3         1 ASY      -0.151200
     15 C12          4.4740     1.5090     0.4410 c2         1 ASY      -0.199200
     16 C13          5.5020     1.2550    -0.3630 c2         1 ASY      -0.218200
     17 C14          6.8730     0.8640     0.0890 c3         1 ASY      -0.038200
     18 C15          7.2680    -0.5340    -0.3890 c3         1 ASY      -0.073400
     19 C16          8.6910    -0.9150     0.0000 c3         1 ASY      -0.075400
     20 C17          9.0910    -2.3070    -0.4750 c3         1 ASY      -0.075400
     21 C18         10.5150    -2.6810    -0.0870 c3         1 ASY      -0.088100
     22 H9           0.6640     1.3740    -1.2130 hc         1 ASY       0.057200
     23 H9A          0.4390     2.3560     0.1990 hc         1 ASY       0.057200
     24 H8          -0.2950    -0.6160     0.0040 hc         1 ASY       0.050200
     25 H8A         -0.5090     0.3700     1.4340 hc         1 ASY       0.050200
     26 H7          -2.0340     1.8910     0.1520 hc         1 ASY       0.033700
     27 H7A         -1.8310     0.8910    -1.2700 hc         1 ASY       0.033700
     28 H6          -2.8080    -1.0590    -0.0350 hc         1 ASY       0.034700
     29 H6A         -3.0070    -0.0550     1.3850 hc         1 ASY       0.034700
     30 H5          -4.5310     1.4600     0.0920 hc         1 ASY       0.033700
     31 H5A         -4.3460     0.4380    -1.3160 hc         1 ASY       0.033700
     32 H4          -5.3230    -1.4880    -0.0470 hc         1 ASY       0.024700
     33 H4A         -5.5020    -0.4670     1.3620 hc         1 ASY       0.024700
     34 H3          -7.0390     1.0360     0.0770 hc         1 ASY       0.037700
     35 H3A         -6.8640     0.0150    -1.3290 hc         1 ASY       0.037700
     36 H2          -7.8150    -1.9210    -0.0370 hc         1 ASY       0.014700
     37 H2A         -7.9870    -0.9050     1.3610 hc         1 ASY       0.014700
     38 H11          3.0990     2.0180    -1.1260 hc         1 ASY       0.063200
     39 H11A         2.8410     2.8930     0.3550 hc         1 ASY       0.063200
     40 H12          4.6150     1.4470     1.5170 ha         1 ASY       0.178000
     41 H13          5.3550     1.3190    -1.4400 ha         1 ASY       0.163000
     42 H14          7.6010     1.5860    -0.2970 hc         1 ASY       0.041700
     43 H14A         6.9350     0.9140     1.1810 hc         1 ASY       0.041700
     44 H15          6.5650    -1.2650     0.0230 hc         1 ASY       0.043200
     45 H15A         7.1630    -0.5880    -1.4780 hc         1 ASY       0.043200
     46 H16          9.3890    -0.1770    -0.4090 hc         1 ASY       0.035200
     47 H16A         8.7970    -0.8600     1.0890 hc         1 ASY       0.035200
     48 H17          8.3950    -3.0440    -0.0640 hc         1 ASY       0.038200
     49 H17A         8.9830    -2.3620    -1.5630 hc         1 ASY       0.038200
     50 H18         10.6480    -2.6640     0.9960 hc         1 ASY       0.029367
     51 H18A        10.7750    -3.6810    -0.4360 hc         1 ASY       0.029367
     52 H18B        11.2380    -1.9840    -0.5170 hc         1 ASY       0.029367
@<TRIPOS>BOND
     1     1     2 1   
     2     1    12 1   
     3     1    22 1   
     4     1    23 1   
     5     2     3 1   
     6     2    24 1   
     7     2    25 1   
     8     3     4 1   
     9     3    26 1   
    10     3    27 1   
    11     4     5 1   
    12     4    28 1   
    13     4    29 1   
    14     5     6 1   
    15     5    30 1   
    16     5    31 1   
    17     6     7 1   
    18     6    32 1   
    19     6    33 1   
    20     7     8 1   
    21     7    34 1   
    22     7    35 1   
    23     8     9 1   
    24     8    36 1   
    25     8    37 1   
    26     9    10 1   
    27     9    11 1   
    28    12    13 2   
    29    12    14 1   
    30    14    15 1   
    31    14    38 1   
    32    14    39 1   
    33    15    16 2   
    34    15    40 1   
    35    16    17 1   
    36    16    41 1   
    37    17    18 1   
    38    17    42 1   
    39    17    43 1   
    40    18    19 1   
    41    18    44 1   
    42    18    45 1   
    43    19    20 1   
    44    19    46 1   
    45    19    47 1   
    46    20    21 1   
    47    20    48 1   
    48    20    49 1   
    49    21    50 1   
    50    21    51 1   
    51    21    52 1   
@<TRIPOS>SUBSTRUCTURE
     1 ASY         1 TEMP              0 ****  ****    0 ROOT
