@<TRIPOS>MOLECULE
ASZ
   19    18     1     0     0
SMALL
abcg2


@<TRIPOS>ATOM
      1 OAC         -1.6470    -0.3430    -1.4120 o          1 ASZ      -0.699533
      2 SAI         -1.5910     0.0410     0.0130 s6         1 ASZ       1.323600
      3 OAE         -1.7200     1.4980     0.2210 o          1 ASZ      -0.699533
      4 OAD         -2.5060    -0.7490     0.8600 o          1 ASZ      -0.699533
      5 CAG          0.0620    -0.4000     0.5730 c3         1 ASZ      -0.357400
      6 CAF          1.1560     0.3620    -0.1590 c3         1 ASZ       0.201800
      7 NAH          2.4810     0.0050     0.3180 n3         1 ASZ      -0.715600
      8 CAB          2.8780    -1.3250    -0.0940 c3         1 ASZ       0.157600
      9 CAA          3.4630     0.9800    -0.1050 c3         1 ASZ       0.157600
     10 HAG1         0.1140    -0.1980     1.6450 h1         1 ASZ       0.069700
     11 HAG2         0.1520    -1.4790     0.4320 h1         1 ASZ       0.069700
     12 HAF1         1.0570     0.2050    -1.2450 h1         1 ASZ       0.041700
     13 HAF2         1.0110     1.4290     0.0210 h1         1 ASZ       0.041700
     14 HAB1         2.9350    -1.4380    -1.1880 h1         1 ASZ       0.018033
     15 HAB2         3.8610    -1.5610     0.3160 h1         1 ASZ       0.018033
     16 HAB3         2.1830    -2.0760     0.2810 h1         1 ASZ       0.018033
     17 HAA1         3.1940     1.9710     0.2650 h1         1 ASZ       0.018033
     18 HAA2         4.4420     0.7260     0.3050 h1         1 ASZ       0.018033
     19 HAA3         3.5680     1.0470    -1.2000 h1         1 ASZ       0.018033
@<TRIPOS>BOND
     1     1     2 1   
     2     2     3 1   
     3     2     4 1   
     4     2     5 1   
     5     5     6 1   
     6     5    10 1   
     7     5    11 1   
     8     6     7 1   
     9     6    12 1   
    10     6    13 1   
    11     7     8 1   
    12     7     9 1   
    13     8    14 1   
    14     8    15 1   
    15     8    16 1   
    16     9    17 1   
    17     9    18 1   
    18     9    19 1   
@<TRIPOS>SUBSTRUCTURE
     1 ASZ         1 TEMP              0 ****  ****    0 ROOT
