@<TRIPOS>MOLECULE
ASZ
   19    18     1     0     0
SMALL
No Charge or Current Charge


@<TRIPOS>ATOM
      1 OAC         -1.6130    -0.1130    -1.4410 o          1 ASZ      -0.699533
      2 SAI         -1.6140     0.0740     0.0170 s6         1 ASZ       1.323600
      3 OAE         -1.6900     1.4750     0.4550 o          1 ASZ      -0.699533
      4 OAD         -2.5050    -0.8400     0.7470 o          1 ASZ      -0.699533
      5 CAG          0.0300    -0.4530     0.5230 c3         1 ASZ      -0.357400
      6 CAF          1.1250     0.3810    -0.1560 c3         1 ASZ       0.201800
      7 NAH          2.4930     0.0390     0.3060 n3         1 ASZ      -0.715600
      8 CAB          2.8940    -1.3560     0.0060 c3         1 ASZ       0.157600
      9 CAA          3.4980     1.0120    -0.1740 c3         1 ASZ       0.157600
     10 HAG1         0.0770    -0.3420     1.6100 h1         1 ASZ       0.069700
     11 HAG2         0.1100    -1.5090     0.2510 h1         1 ASZ       0.069700
     12 HAF1         1.0570     0.2520    -1.2460 h1         1 ASZ       0.041700
     13 HAF2         0.9300     1.4420     0.0550 h1         1 ASZ       0.041700
     14 HAB1         2.8710    -1.5450    -1.0760 h1         1 ASZ       0.018033
     15 HAB2         3.9140    -1.5490     0.3660 h1         1 ASZ       0.018033
     16 HAB3         2.2300    -2.0770     0.5000 h1         1 ASZ       0.018033
     17 HAA1         3.2270     2.0320     0.1300 h1         1 ASZ       0.018033
     18 HAA2         4.4870     0.7860     0.2440 h1         1 ASZ       0.018033
     19 HAA3         3.5730     0.9870    -1.2700 h1         1 ASZ       0.018033
@<TRIPOS>BOND
     1     1     2 1   
     2     2     3 1   
     3     2     4 1   
     4     2     5 1   
     5     5     6 1   
     6     5    10 1   
     7     5    11 1   
     8     6     7 1   
     9     6    12 1   
    10     6    13 1   
    11     7     8 1   
    12     7     9 1   
    13     8    14 1   
    14     8    15 1   
    15     8    16 1   
    16     9    17 1   
    17     9    18 1   
    18     9    19 1   
@<TRIPOS>SUBSTRUCTURE
     1 ASZ         1 TEMP              0 ****  ****    0 ROOT
