@<TRIPOS>MOLECULE
AT1
   37    37     1     0     0
SMALL
bcc


@<TRIPOS>ATOM
      1 N           -2.0420    -0.8170     0.1530 n8         1 AT1      -0.900800
      2 C           -0.7230     0.8190     1.5730 c3         1 AT1      -0.035100
      3 O           -2.6160    -0.1020     3.6250 o          1 AT1      -0.871800
      4 C1          -1.6480    -0.4200     1.4860 c3         1 AT1       0.066500
      5 C2          -2.8630    -0.1580     2.4010 c          1 AT1       0.925600
      6 O1          -3.9750     0.0100     1.8630 o          1 AT1      -0.871800
      7 O2           2.6190     0.2060     0.1930 os         1 AT1      -0.179100
      8 N1           1.9940     0.6920    -0.9270 nc         1 AT1      -0.476300
      9 C4          -0.0250     1.3740    -2.7360 c3         1 AT1      -0.005800
     10 C5           0.7770     0.9590    -0.5440 cd         1 AT1       0.627600
     11 C6           0.5620     0.6620     0.8350 cd         1 AT1      -0.289900
     12 C7           1.7750     0.1960     1.2340 cc         1 AT1       0.231000
     13 C9           1.4000    -1.1810     3.2920 c3         1 AT1      -0.077100
     14 C10          2.5410     1.0450     3.4160 c3         1 AT1      -0.077100
     15 C11          3.7000    -0.9180     2.3890 c3         1 AT1      -0.077100
     16 P           -0.8520    -0.1980    -3.3200 p5         1 AT1       1.121700
     17 O4          -2.3510     0.0300    -3.1120 o          1 AT1      -0.920500
     18 O5          -0.4260    -0.2640    -4.7910 o          1 AT1      -0.920500
     19 O6          -0.2510    -1.3030    -2.4410 o          1 AT1      -0.920500
     20 H2          -2.5690    -0.0810    -0.2980 hn         1 AT1       0.379800
     21 H3          -1.2430    -0.9740    -0.4550 hn         1 AT1       0.379800
     22 H5          -0.5280     1.0440     2.6220 hc         1 AT1       0.034200
     23 H6          -1.2610     1.6840     1.1720 hc         1 AT1       0.034200
     24 H4          -1.0910    -1.2560     1.9210 h1         1 AT1       0.013700
     25 H7          -0.5150     2.2570    -3.1520 h1         1 AT1       0.014200
     26 H8           1.0260     1.4210    -3.0330 h1         1 AT1       0.014200
     27 H11          1.8580    -1.4880     4.2340 hc         1 AT1       0.028144
     28 H12          0.4390    -0.7280     3.5320 hc         1 AT1       0.028144
     29 H13          1.2120    -2.0800     2.7030 hc         1 AT1       0.028144
     30 H14          1.5950     1.5580     3.5910 hc         1 AT1       0.028144
     31 H15          2.9640     0.7820     4.3870 hc         1 AT1       0.028144
     32 H16          3.2220     1.7470     2.9320 hc         1 AT1       0.028144
     33 H17          3.6190    -1.8180     1.7780 hc         1 AT1       0.028144
     34 H18          4.4500    -0.2680     1.9390 hc         1 AT1       0.028144
     35 H19          4.0730    -1.2210     3.3680 hc         1 AT1       0.028144
     36 C3           2.3470    -0.2210     2.5650 c3         1 AT1      -0.059300
     37 O3          -0.1400     1.5200    -1.3050 os         1 AT1      -0.411100
@<TRIPOS>BOND
     1     1     4 1   
     2     1    20 1   
     3     1    21 1   
     4     2     4 1   
     5     2    11 1   
     6     2    22 1   
     7     2    23 1   
     8     3     5 1   
     9     4     5 1   
    10     4    24 1   
    11     5     6 1   
    12     7     8 1   
    13     7    12 1   
    14     8    10 2   
    15     9    16 1   
    16     9    25 1   
    17     9    26 1   
    18     9    37 1   
    19    10    11 1   
    20    10    37 1   
    21    11    12 2   
    22    12    36 1   
    23    13    27 1   
    24    13    28 1   
    25    13    29 1   
    26    13    36 1   
    27    14    30 1   
    28    14    31 1   
    29    14    32 1   
    30    14    36 1   
    31    15    33 1   
    32    15    34 1   
    33    15    35 1   
    34    15    36 1   
    35    16    17 1   
    36    16    18 1   
    37    16    19 1   
@<TRIPOS>SUBSTRUCTURE
     1 AT1         1 TEMP              0 ****  ****    0 ROOT
