@<TRIPOS>MOLECULE
AT1
   37    37     1     0     0
SMALL
No Charge or Current Charge


@<TRIPOS>ATOM
      1 N           -2.2910    -0.5200     0.1740 n8         1 AT1      -1.011200
      2 C           -0.7210     0.8970     1.5650 c3         1 AT1      -0.035100
      3 O           -2.8190    -1.0680     3.5650 o          1 AT1      -0.766500
      4 C1          -1.6990    -0.3130     1.5450 c3         1 AT1       0.066500
      5 C2          -2.7480    -0.1700     2.7360 c          1 AT1       0.715000
      6 O1          -3.4850     0.8100     2.7620 o          1 AT1      -0.766500
      7 O2           2.6660     0.3310     0.1090 os         1 AT1      -0.134700
      8 N1           1.9780     0.8640    -1.0320 nc         1 AT1      -0.476300
      9 C4          -0.2710     1.3890    -2.7860 c3         1 AT1      -0.140400
     10 C5           0.7500     1.0360    -0.5830 cd         1 AT1       0.562300
     11 C6           0.5550     0.7020     0.7720 cd         1 AT1      -0.159300
     12 C7           1.7910     0.2520     1.1790 cc         1 AT1       0.121300
     13 C9           1.3710    -1.2390     3.2000 c3         1 AT1      -0.077100
     14 C10          2.5330     0.9990     3.4590 c3         1 AT1      -0.077100
     15 C11          3.7080    -0.9330     2.3490 c3         1 AT1      -0.077100
     16 P           -0.4960    -0.4140    -3.3030 p5         1 AT1       1.279500
     17 O4          -1.7130    -0.5160    -4.1610 o          1 AT1      -0.920500
     18 O5           0.6980    -0.8580    -4.0820 o          1 AT1      -0.920500
     19 O6          -0.6630    -1.2630    -2.0860 o          1 AT1      -0.920500
     20 H2          -2.6660     0.3720    -0.1630 hn         1 AT1       0.435000
     21 H3          -1.5480    -0.7350    -0.5230 hn         1 AT1       0.435000
     22 H5          -0.4690     1.1260     2.6050 hc         1 AT1       0.034200
     23 H6          -1.2480     1.7870     1.2020 hc         1 AT1       0.034200
     24 H4          -1.1150    -1.2170     1.7610 h1         1 AT1       0.013700
     25 H7          -1.1050     1.9490    -3.2250 h1         1 AT1       0.014200
     26 H8           0.6500     1.7590    -3.2540 h1         1 AT1       0.014200
     27 H11          1.8250    -1.6750     4.0980 hc         1 AT1       0.028144
     28 H12          0.4360    -0.7660     3.5150 hc         1 AT1       0.028144
     29 H13          1.1290    -2.0590     2.5120 hc         1 AT1       0.028144
     30 H14          1.5850     1.5180     3.6430 hc         1 AT1       0.028144
     31 H15          2.9420     0.6920     4.4290 hc         1 AT1       0.028144
     32 H16          3.2280     1.7200     3.0100 hc         1 AT1       0.028144
     33 H17          3.6190    -1.7940     1.6750 hc         1 AT1       0.028144
     34 H18          4.4580    -0.2490     1.9330 hc         1 AT1       0.028144
     35 H19          4.0920    -1.2960     3.3100 hc         1 AT1       0.028144
     36 C3           2.3340    -0.2240     2.5280 c3         1 AT1      -0.059300
     37 O3          -0.2370     1.6140    -1.3470 os         1 AT1      -0.434300
@<TRIPOS>BOND
     1     1     4 1   
     2     1    20 1   
     3     1    21 1   
     4     2     4 1   
     5     2    11 1   
     6     2    22 1   
     7     2    23 1   
     8     3     5 1   
     9     4     5 1   
    10     4    24 1   
    11     5     6 1   
    12     7     8 1   
    13     7    12 1   
    14     8    10 2   
    15     9    16 1   
    16     9    25 1   
    17     9    26 1   
    18     9    37 1   
    19    10    11 1   
    20    10    37 1   
    21    11    12 2   
    22    12    36 1   
    23    13    27 1   
    24    13    28 1   
    25    13    29 1   
    26    13    36 1   
    27    14    30 1   
    28    14    31 1   
    29    14    32 1   
    30    14    36 1   
    31    15    33 1   
    32    15    34 1   
    33    15    35 1   
    34    15    36 1   
    35    16    17 1   
    36    16    18 1   
    37    16    19 1   
@<TRIPOS>SUBSTRUCTURE
     1 AT1         1 TEMP              0 ****  ****    0 ROOT
