@<TRIPOS>MOLECULE
AT2
   40    41     1     0     0
SMALL
No Charge or Current Charge


@<TRIPOS>ATOM
      1 C1          -4.5230     2.6350     1.4300 c3         1 AT2      -0.053800
      2 C2          -4.3200     1.3840     0.5930 ca         1 AT2       0.000700
      3 C3          -5.3090     0.9300    -0.2950 ca         1 AT2      -0.228000
      4 C4          -5.0810    -0.2370    -1.0440 ca         1 AT2       0.387900
      5 C6          -3.0100    -0.5140    -0.1160 ca         1 AT2       0.617900
      6 C7          -3.1410     0.6310     0.6830 ca         1 AT2      -0.236000
      7 C9          -0.5710    -0.9690     0.3110 c6         1 AT2       0.239500
      8 C10          0.0450     0.0420    -0.6700 c6         1 AT2      -0.125900
      9 C11          1.4830     0.4280    -0.2570 c6         1 AT2       0.106500
     10 N5          -3.9420    -0.9580    -0.9560 nb         1 AT2      -0.755000
     11 N8          -1.9220    -1.3380    -0.1180 nu         1 AT2      -0.932100
     12 N12          2.3800    -0.7210     0.0890 n          1 AT2      -0.398800
     13 C13          1.7510    -1.8860     0.7800 c6         1 AT2       0.106500
     14 C14          0.3130    -2.2230     0.3290 c6         1 AT2      -0.125900
     15 C15          3.7760    -0.5450     0.1830 c          1 AT2       0.644100
     16 O16          4.5330    -1.3910     0.6370 o          1 AT2      -0.545000
     17 O17          4.1820     0.6740    -0.2910 os         1 AT2      -0.463100
     18 C18          5.5850     0.9780    -0.2520 c3         1 AT2       0.184600
     19 C19          5.7660     2.3890    -0.8340 c3         1 AT2      -0.100100
     20 H11         -5.1910     3.3470     0.9300 hc         1 AT2       0.046033
     21 H12         -4.9650     2.3870     2.4020 hc         1 AT2       0.046033
     22 H13         -3.5730     3.1490     1.6150 hc         1 AT2       0.046033
     23 H3          -6.2460     1.4670    -0.4070 ha         1 AT2       0.122000
     24 H4          -5.8370    -0.6070    -1.7360 h4         1 AT2       0.014100
     25 H7          -2.3470     0.9290     1.3590 ha         1 AT2       0.118000
     26 H9          -0.5920    -0.5380     1.3240 h1         1 AT2       0.057700
     27 H101         0.0640    -0.3860    -1.6820 hc         1 AT2       0.059700
     28 H102        -0.5700     0.9490    -0.7270 hc         1 AT2       0.059700
     29 H111         1.4330     1.0940     0.6170 h1         1 AT2       0.063700
     30 H112         1.9210     1.0120    -1.0790 h1         1 AT2       0.063700
     31 HN8         -2.0280    -2.0810    -0.8020 hn         1 AT2       0.492000
     32 H131         2.3770    -2.7790     0.6370 h1         1 AT2       0.063700
     33 H132         1.7420    -1.6750     1.8590 h1         1 AT2       0.063700
     34 H141         0.3460    -2.6750    -0.6720 hc         1 AT2       0.059700
     35 H142        -0.1120    -2.9790     1.0030 hc         1 AT2       0.059700
     36 H181         6.1600     0.2590    -0.8500 h1         1 AT2       0.049700
     37 H182         5.9630     0.9560     0.7800 h1         1 AT2       0.049700
     38 H191         6.8250     2.6700    -0.8260 hc         1 AT2       0.046700
     39 H192         5.4070     2.4280    -1.8690 hc         1 AT2       0.046700
     40 H193         5.2100     3.1250    -0.2410 hc         1 AT2       0.046700
@<TRIPOS>BOND
     1     1     2 1   
     2     1    20 1   
     3     1    21 1   
     4     1    22 1   
     5     2     3 ar  
     6     2     6 ar  
     7     3     4 ar  
     8     3    23 1   
     9     4    10 ar  
    10     4    24 1   
    11     5     6 ar  
    12     5    10 ar  
    13     5    11 1   
    14     6    25 1   
    15     7     8 1   
    16     7    11 1   
    17     7    14 1   
    18     7    26 1   
    19     8     9 1   
    20     8    27 1   
    21     8    28 1   
    22     9    12 1   
    23     9    29 1   
    24     9    30 1   
    25    11    31 1   
    26    12    13 1   
    27    12    15 1   
    28    13    14 1   
    29    13    32 1   
    30    13    33 1   
    31    14    34 1   
    32    14    35 1   
    33    15    16 2   
    34    15    17 1   
    35    17    18 1   
    36    18    19 1   
    37    18    36 1   
    38    18    37 1   
    39    19    38 1   
    40    19    39 1   
    41    19    40 1   
@<TRIPOS>SUBSTRUCTURE
     1 AT2         1 TEMP              0 ****  ****    0 ROOT
