@<TRIPOS>MOLECULE
AT2
   40    41     1     0     0
SMALL
bcc


@<TRIPOS>ATOM
      1 C1          -4.6980     2.2430     1.3680 c3         1 AT2      -0.053800
      2 C2          -4.2910     1.1950     0.3780 ca         1 AT2       0.000700
      3 C3          -5.1290     0.8550    -0.6900 ca         1 AT2      -0.311300
      4 C4          -4.6920    -0.1070    -1.5770 ca         1 AT2       0.453200
      5 C6          -2.7210    -0.4260    -0.4690 ca         1 AT2       0.683200
      6 C7          -3.0760     0.5460     0.4870 ca         1 AT2      -0.319300
      7 C9          -0.4430    -0.7990     0.4560 c6         1 AT2       0.239500
      8 C10          0.3120     0.4590     0.0150 c6         1 AT2      -0.125900
      9 C11          1.5180     0.7070     0.9120 c6         1 AT2       0.106500
     10 N5          -3.5260    -0.7360    -1.4870 nb         1 AT2      -0.755000
     11 N8          -1.5570    -1.1280    -0.4010 nu         1 AT2      -0.876900
     12 N12          2.3850    -0.4600     0.9360 n          1 AT2      -0.465800
     13 C13          1.7180    -1.6620     1.4020 c6         1 AT2       0.106500
     14 C14          0.5120    -1.9870     0.5270 c6         1 AT2      -0.125900
     15 C15          3.5620    -0.5560     0.2780 c          1 AT2       0.760100
     16 O16          4.2200    -1.5760     0.1850 o          1 AT2      -0.594000
     17 O17          3.9460     0.6070    -0.2500 os         1 AT2      -0.439900
     18 C18          5.2130     0.6460    -0.9150 c3         1 AT2       0.161400
     19 C19          5.3830     2.0310    -1.4910 c3         1 AT2      -0.100100
     20 H11         -4.8140     3.2110     0.8780 hc         1 AT2       0.046033
     21 H12         -5.6600     1.9990     1.8210 hc         1 AT2       0.046033
     22 H13         -3.9640     2.3530     2.1640 hc         1 AT2       0.046033
     23 H3          -6.0920     1.3300    -0.8250 ha         1 AT2       0.140000
     24 H4          -5.3180    -0.3920    -2.4170 h4         1 AT2       0.014100
     25 H7          -2.4090     0.7900     1.3030 ha         1 AT2       0.136000
     26 H9          -0.8290    -0.6340     1.4690 h1         1 AT2       0.057700
     27 H101         0.6420     0.3390    -1.0210 hc         1 AT2       0.059700
     28 H102        -0.3460     1.3320     0.0450 hc         1 AT2       0.059700
     29 H111         1.1830     0.8980     1.9360 h1         1 AT2       0.063700
     30 H112         2.0640     1.5890     0.5930 h1         1 AT2       0.063700
     31 HN8         -1.3510    -1.6730    -1.2240 hn         1 AT2       0.436800
     32 H131         2.4170    -2.4930     1.4160 h1         1 AT2       0.063700
     33 H132         1.3920    -1.4980     2.4340 h1         1 AT2       0.063700
     34 H141         0.8570    -2.2450    -0.4790 hc         1 AT2       0.059700
     35 H142        -0.0050    -2.8590     0.9310 hc         1 AT2       0.059700
     36 H181         5.2460    -0.1050    -1.7070 h1         1 AT2       0.049700
     37 H182         6.0120     0.4220    -0.2060 h1         1 AT2       0.049700
     38 H191         6.3480     2.0920    -1.9940 hc         1 AT2       0.046700
     39 H192         4.6100     2.2580    -2.2250 hc         1 AT2       0.046700
     40 H193         5.3620     2.7960    -0.7150 hc         1 AT2       0.046700
@<TRIPOS>BOND
     1     1     2 1   
     2     1    20 1   
     3     1    21 1   
     4     1    22 1   
     5     2     3 ar  
     6     2     6 ar  
     7     3     4 ar  
     8     3    23 1   
     9     4    10 ar  
    10     4    24 1   
    11     5     6 ar  
    12     5    10 ar  
    13     5    11 1   
    14     6    25 1   
    15     7     8 1   
    16     7    11 1   
    17     7    14 1   
    18     7    26 1   
    19     8     9 1   
    20     8    27 1   
    21     8    28 1   
    22     9    12 1   
    23     9    29 1   
    24     9    30 1   
    25    11    31 1   
    26    12    13 1   
    27    12    15 1   
    28    13    14 1   
    29    13    32 1   
    30    13    33 1   
    31    14    34 1   
    32    14    35 1   
    33    15    16 2   
    34    15    17 1   
    35    17    18 1   
    36    18    19 1   
    37    18    36 1   
    38    18    37 1   
    39    19    38 1   
    40    19    39 1   
    41    19    40 1   
@<TRIPOS>SUBSTRUCTURE
     1 AT2         1 TEMP              0 ****  ****    0 ROOT
