@<TRIPOS>MOLECULE
AT3
   26    25     1     0     0
SMALL
No Charge or Current Charge


@<TRIPOS>ATOM
      1 N1          -2.5250     0.0930    -0.0000 n4         1 AT3      -0.498000
      2 C2          -1.1790    -0.6560    -0.0060 c3         1 AT3       0.111600
      3 C3           0.1110     0.1890     0.0030 c3         1 AT3       0.022600
      4 C5           2.9260     0.3260     0.0060 c          1 AT3       0.638700
      5 O7           2.7210     1.5310     0.0170 o          1 AT3      -0.488100
      6 C6           4.3230    -0.2740     0.0010 c3         1 AT3      -0.187100
      7 C8          -2.6500     0.9830    -1.2480 c3         1 AT3       0.074567
      8 C9          -3.6640    -0.9360    -0.0110 c3         1 AT3       0.074567
      9 C10         -2.6520     0.9600     1.2630 c3         1 AT3       0.074567
     10 S24          1.5960    -0.9160    -0.0060 ss         1 AT3      -0.371600
     11 H2C1        -1.1620    -1.2940    -0.8930 hx         1 AT3       0.105700
     12 H2C2        -1.1640    -1.3100     0.8690 hx         1 AT3       0.105700
     13 H3C1         0.1370     0.8200     0.8990 h1         1 AT3       0.092700
     14 H3C2         0.1380     0.8370    -0.8820 h1         1 AT3       0.092700
     15 H6C1         5.1090     0.4890     0.0090 hc         1 AT3       0.088033
     16 H6C2         4.4120    -0.9630     0.8480 hc         1 AT3       0.088033
     17 H6C3         4.4130    -0.9470    -0.8580 hc         1 AT3       0.088033
     18 H8C1        -2.5530     0.3660    -2.1440 hx         1 AT3       0.098589
     19 H8C2        -3.6270     1.4720    -1.2450 hx         1 AT3       0.098589
     20 H8C3        -1.8650     1.7410    -1.2360 hx         1 AT3       0.098589
     21 H9C1        -3.5890    -1.5690     0.8760 hx         1 AT3       0.098589
     22 H9C2        -4.6230    -0.4130    -0.0070 hx         1 AT3       0.098589
     23 H9C3        -3.5870    -1.5520    -0.9090 hx         1 AT3       0.098589
     24 H103        -2.5570     0.3270     2.1470 hx         1 AT3       0.098589
     25 H101        -1.8670     1.7180     1.2660 hx         1 AT3       0.098589
     26 H102        -3.6290     1.4490     1.2670 hx         1 AT3       0.098589
@<TRIPOS>BOND
     1     1     2 1   
     2     1     7 1   
     3     1     8 1   
     4     1     9 1   
     5     2     3 1   
     6     2    11 1   
     7     2    12 1   
     8     3    10 1   
     9     3    13 1   
    10     3    14 1   
    11     4     5 2   
    12     4     6 1   
    13     4    10 1   
    14     6    15 1   
    15     6    16 1   
    16     6    17 1   
    17     7    18 1   
    18     7    19 1   
    19     7    20 1   
    20     8    21 1   
    21     8    22 1   
    22     8    23 1   
    23     9    24 1   
    24     9    25 1   
    25     9    26 1   
@<TRIPOS>SUBSTRUCTURE
     1 AT3         1 TEMP              0 ****  ****    0 ROOT
