@<TRIPOS>MOLECULE
AT3
   26    25     1     0     0
SMALL
bcc


@<TRIPOS>ATOM
      1 N1          -2.4630     0.1000    -0.0020 n4         1 AT3      -0.610800
      2 C2          -1.1590    -0.6490    -0.0180 c3         1 AT3       0.139800
      3 C3           0.0690     0.2440    -0.0080 c3         1 AT3      -0.025300
      4 C5           2.8290     0.3280     0.0050 c          1 AT3       0.638700
      5 O7           2.6240     1.5120     0.0250 o          1 AT3      -0.488100
      6 C6           4.1800    -0.3210     0.0100 c3         1 AT3      -0.187100
      7 C8          -2.6030     0.9610    -1.2090 c3         1 AT3       0.102767
      8 C9          -3.5590    -0.9120    -0.0070 c3         1 AT3       0.102767
      9 C10         -2.5910     0.9320     1.2270 c3         1 AT3       0.102767
     10 S24          1.5080    -0.8630    -0.0240 ss         1 AT3      -0.323700
     11 H2C1        -1.1740    -1.2740    -0.9110 hx         1 AT3       0.105700
     12 H2C2        -1.1680    -1.3010     0.8560 hx         1 AT3       0.105700
     13 H3C1         0.1170     0.8620     0.8870 h1         1 AT3       0.092700
     14 H3C2         0.1160     0.8840    -0.8870 h1         1 AT3       0.092700
     15 H6C1         4.9630     0.4330    -0.0120 hc         1 AT3       0.088033
     16 H6C2         4.2970    -0.9330     0.9050 hc         1 AT3       0.088033
     17 H6C3         4.2900    -0.9800    -0.8530 hc         1 AT3       0.088033
     18 H8C1        -2.4680     0.3510    -2.0990 hx         1 AT3       0.098589
     19 H8C2        -3.5980     1.3970    -1.2130 hx         1 AT3       0.098589
     20 H8C3        -1.8660     1.7570    -1.1890 hx         1 AT3       0.098589
     21 H9C1        -3.4730    -1.5360     0.8780 hx         1 AT3       0.098589
     22 H9C2        -4.5140    -0.3960    -0.0020 hx         1 AT3       0.098589
     23 H9C3        -3.4760    -1.5240    -0.9010 hx         1 AT3       0.098589
     24 H103        -2.4440     0.3020     2.1000 hx         1 AT3       0.098589
     25 H101        -1.8570     1.7320     1.2160 hx         1 AT3       0.098589
     26 H102        -3.5870     1.3650     1.2520 hx         1 AT3       0.098589
@<TRIPOS>BOND
     1     1     2 1   
     2     1     7 1   
     3     1     8 1   
     4     1     9 1   
     5     2     3 1   
     6     2    11 1   
     7     2    12 1   
     8     3    10 1   
     9     3    13 1   
    10     3    14 1   
    11     4     5 2   
    12     4     6 1   
    13     4    10 1   
    14     6    15 1   
    15     6    16 1   
    16     6    17 1   
    17     7    18 1   
    18     7    19 1   
    19     7    20 1   
    20     8    21 1   
    21     8    22 1   
    22     8    23 1   
    23     9    24 1   
    24     9    25 1   
    25     9    26 1   
@<TRIPOS>SUBSTRUCTURE
     1 AT3         1 TEMP              0 ****  ****    0 ROOT
