@<TRIPOS>MOLECULE
AT4
   40    42     1     0     0
SMALL
bcc


@<TRIPOS>ATOM
      1 O5          -1.8080     2.9880     1.8140 os         1 AT4      -0.556200
      2 C5          -0.5910     2.3980     1.4230 c3         1 AT4       0.192400
      3 C4          -0.1300     1.4550     2.5180 c5         1 AT4       0.099100
      4 O4          -1.0840     0.4230     2.7840 os         1 AT4      -0.365600
      5 C3           1.1480     0.7130     2.1380 c5         1 AT4       0.065100
      6 O3           1.8220     0.2010     3.2560 oh         1 AT4      -0.586800
      7 C2           0.5610    -0.4650     1.3600 c5         1 AT4       0.101100
      8 C1          -0.7110    -0.7690     2.1650 c5         1 AT4       0.273800
      9 N1          -2.8260    -4.7360    -0.2840 nb         1 AT4      -0.856000
     10 C10         -1.7890    -4.6600     0.5480 ca         1 AT4       0.668900
     11 N3          -1.3080    -3.5990     1.1690 nb         1 AT4      -0.730000
     12 C9          -2.0050    -2.5010     0.8820 ca         1 AT4       0.427800
     13 C7          -3.1120    -2.4260     0.0500 ca         1 AT4      -0.207200
     14 C6          -3.5220    -3.6270    -0.5560 ca         1 AT4       0.764200
     15 N6          -4.5740    -3.6970    -1.3750 nv         1 AT4      -0.964500
     16 N7          -3.5930    -1.1460    -0.0020 nc         1 AT4      -0.558100
     17 C8          -2.7960    -0.4630     0.7700 cd         1 AT4       0.468700
     18 N9          -1.8110    -1.2260     1.3310 na         1 AT4      -0.271000
     19 O2           1.3540    -1.6040     1.2690 oh         1 AT4      -0.558800
     20 PA          -2.4820     4.1570     0.8730 p5         1 AT4       1.438800
     21 O2A         -3.5310     4.7990     1.7190 o          1 AT4      -0.832000
     22 O1A         -1.3970     4.9380     0.2030 o          1 AT4      -0.832000
     23 O3A         -3.1840     3.2530    -0.3150 os         1 AT4      -0.700800
     24 PB          -4.7760     2.8250    -0.3140 p5         1 AT4       1.312800
     25 O1B         -5.0790     2.0170     0.9070 o          1 AT4      -0.785500
     26 O2B         -5.6090     3.9860    -0.7470 o          1 AT4      -0.785500
     27 S3B         -4.7700     1.5310    -2.0200 sh         1 AT4      -0.723200
     28 H5'1        -0.6970     1.8640     0.4700 h1         1 AT4       0.022700
     29 H5'2         0.1900     3.1520     1.2810 h1         1 AT4       0.022700
     30 H4          -0.0030     2.0280     3.4420 h1         1 AT4       0.080700
     31 H3           1.8060     1.3280     1.5110 h1         1 AT4       0.049700
     32 HO3          2.1500     0.9400     3.7780 ho         1 AT4       0.396000
     33 H2           0.2690    -0.1000     0.3660 h1         1 AT4       0.064700
     34 H1          -0.5220    -1.5570     2.9010 h2         1 AT4       0.099700
     35 HN61        -5.0760    -2.8690    -1.6410 hn         1 AT4       0.445300
     36 HN62        -4.7830    -4.5540    -1.8570 hn         1 AT4       0.445300
     37 H8          -2.9090     0.5890     0.9840 h5         1 AT4       0.136800
     38 HO2          2.0680    -1.4310     0.6480 ho         1 AT4       0.397000
     39 HS3B        -4.3580     0.4070    -1.4070 hs         1 AT4       0.318800
     40 H6          -1.2740    -5.5970     0.7340 h5         1 AT4       0.020100
@<TRIPOS>BOND
     1     1     2 1   
     2     1    20 1   
     3     2     3 1   
     4     2    28 1   
     5     2    29 1   
     6     3     4 1   
     7     3     5 1   
     8     3    30 1   
     9     4     8 1   
    10     5     6 1   
    11     5     7 1   
    12     5    31 1   
    13     6    32 1   
    14     7     8 1   
    15     7    19 1   
    16     7    33 1   
    17     8    18 1   
    18     8    34 1   
    19     9    10 ar  
    20     9    14 ar  
    21    10    11 ar  
    22    10    40 1   
    23    11    12 ar  
    24    12    13 ar  
    25    12    18 1   
    26    13    14 ar  
    27    13    16 1   
    28    14    15 1   
    29    15    35 1   
    30    15    36 1   
    31    16    17 2   
    32    17    18 1   
    33    17    37 1   
    34    19    38 1   
    35    20    21 1   
    36    20    22 1   
    37    20    23 1   
    38    23    24 1   
    39    24    25 1   
    40    24    26 1   
    41    24    27 1   
    42    27    39 1   
@<TRIPOS>SUBSTRUCTURE
     1 AT4         1 TEMP              0 ****  ****    0 ROOT
