@<TRIPOS>MOLECULE
AT4
   40    42     1     0     0
SMALL
No Charge or Current Charge


@<TRIPOS>ATOM
      1 O5          -1.8000     2.8410     1.7790 os         1 AT4      -0.579400
      2 C5          -0.5610     2.2930     1.3110 c3         1 AT4       0.215600
      3 C4           0.1180     1.5140     2.4780 c5         1 AT4       0.122300
      4 O4          -0.7410     0.4660     2.9940 os         1 AT4      -0.412000
      5 C3           1.4040     0.7400     2.0600 c5         1 AT4       0.088300
      6 O3           2.2080     0.3290     3.1870 oh         1 AT4      -0.709000
      7 C2           0.7680    -0.5000     1.3600 c5         1 AT4       0.124300
      8 C1          -0.5330    -0.7410     2.2200 c5         1 AT4       0.326300
      9 N1          -3.0310    -4.2350    -0.8210 nb         1 AT4      -0.330000
     10 C10         -1.7350    -4.1580    -0.4360 ca         1 AT4       0.142900
     11 N3          -1.1730    -3.1850     0.3200 nb         1 AT4      -0.204000
     12 C9          -1.9950    -2.1930     0.7170 ca         1 AT4       0.099500
     13 C7          -3.3250    -2.1750     0.3780 ca         1 AT4      -0.076600
     14 C6          -3.8270    -3.2380    -0.4060 ca         1 AT4       0.435900
     15 N6          -5.1300    -3.3320    -0.7830 nv         1 AT4      -1.074900
     16 N7          -3.9880    -1.0660     0.8890 nc         1 AT4      -0.558100
     17 C8          -2.9990    -0.4260     1.5480 cd         1 AT4       0.468700
     18 N9          -1.7530    -1.0820     1.4850 na         1 AT4      -0.300300
     19 O2           1.7130    -1.5750     1.4000 oh         1 AT4      -0.681000
     20 PA          -2.7650     3.5820     0.7250 p5         1 AT4       1.438800
     21 O2A         -3.8820     4.2370     1.4680 o          1 AT4      -0.832000
     22 O1A         -1.9890     4.5420    -0.1140 o          1 AT4      -0.832000
     23 O3A         -3.1840     2.2790    -0.0610 os         1 AT4      -0.700800
     24 PB          -4.5900     2.3510    -0.7660 p5         1 AT4       1.312800
     25 O1B         -5.7340     1.9980     0.1200 o          1 AT4      -0.785500
     26 O2B         -4.8020     3.5540    -1.6210 o          1 AT4      -0.785500
     27 S3B         -4.2070     0.7260    -2.0010 sh         1 AT4      -0.723200
     28 H5'1        -0.7300     1.6220     0.4600 h1         1 AT4       0.022700
     29 H5'2         0.1150     3.0940     0.9830 h1         1 AT4       0.022700
     30 H4           0.3240     2.2330     3.2820 h1         1 AT4       0.080700
     31 H3           2.0110     1.3270     1.3550 h1         1 AT4       0.049700
     32 HO3          2.5320     1.1460     3.6370 ho         1 AT4       0.495000
     33 H2           0.4970    -0.2670     0.3210 h1         1 AT4       0.064700
     34 H1          -0.3650    -1.5750     2.9120 h2         1 AT4       0.099700
     35 HN61        -5.7090    -2.5070    -0.6520 hn         1 AT4       0.500500
     36 HN62        -5.3650    -3.9400    -1.5620 hn         1 AT4       0.500500
     37 H8          -3.1180     0.4940     2.1110 h5         1 AT4       0.136800
     38 HO2          2.2980    -1.3110     2.1550 ho         1 AT4       0.496000
     39 HS3B        -4.6220     0.0650    -0.8910 hs         1 AT4       0.318800
     40 H6          -1.0780    -4.9610    -0.7640 h5         1 AT4       0.020100
@<TRIPOS>BOND
     1     1     2 1   
     2     1    20 1   
     3     2     3 1   
     4     2    28 1   
     5     2    29 1   
     6     3     4 1   
     7     3     5 1   
     8     3    30 1   
     9     4     8 1   
    10     5     6 1   
    11     5     7 1   
    12     5    31 1   
    13     6    32 1   
    14     7     8 1   
    15     7    19 1   
    16     7    33 1   
    17     8    18 1   
    18     8    34 1   
    19     9    10 ar  
    20     9    14 ar  
    21    10    11 ar  
    22    10    40 1   
    23    11    12 ar  
    24    12    13 ar  
    25    12    18 1   
    26    13    14 ar  
    27    13    16 1   
    28    14    15 1   
    29    15    35 1   
    30    15    36 1   
    31    16    17 2   
    32    17    18 1   
    33    17    37 1   
    34    19    38 1   
    35    20    21 1   
    36    20    22 1   
    37    20    23 1   
    38    23    24 1   
    39    24    25 1   
    40    24    26 1   
    41    24    27 1   
    42    27    39 1   
@<TRIPOS>SUBSTRUCTURE
     1 AT4         1 TEMP              0 ****  ****    0 ROOT
