@<TRIPOS>MOLECULE
AT5
   44    44     1     0     0
SMALL
bcc


@<TRIPOS>ATOM
      1 O5           0.1210    -1.8050     0.1390 o          1 AT5      -0.527100
      2 C7           0.3850    -0.6220     0.0300 c          1 AT5       0.616300
      3 C8          -0.7180     0.3860    -0.2550 c3         1 AT5      -0.154700
      4 C11         -2.0940    -0.2720    -0.1730 c3         1 AT5      -0.063400
      5 C12         -3.2690     0.7060    -0.2890 c3         1 AT5      -0.060700
      6 C17         -3.2540     1.7780     0.7940 c3         1 AT5      -0.093100
      7 C13         -4.5880    -0.0680    -0.3600 c3         1 AT5       0.056700
      8 CL12        -4.9170    -0.9510     1.1850 cl         1 AT5      -0.198400
      9 C14         -5.7690     0.8200    -0.6760 c3         1 AT5       0.040000
     10 CL16        -7.2510    -0.1370    -0.9900 cl         1 AT5      -0.189400
     11 C10         -0.4650     1.0460    -1.6150 c3         1 AT5      -0.077100
     12 C6           1.7910    -0.1620     0.1170 cc         1 AT5      -0.405400
     13 C5           2.1270     1.1450     0.6080 c          1 AT5       0.745700
     14 N4           3.4920     1.4450     0.6460 ns         1 AT5      -0.489100
     15 C3           4.4890     0.6230     0.2740 cc         1 AT5       0.317700
     16 C2           4.1840    -0.6370    -0.1790 cd         1 AT5      -0.178900
     17 C1           2.8320    -1.0240    -0.2500 cd         1 AT5       0.306100
     18 O1           2.5710    -2.2300    -0.7280 oh         1 AT5      -0.437100
     19 O2           5.1470    -1.5110    -0.5850 os         1 AT5      -0.305900
     20 CM2          5.7890    -2.2150     0.4810 c3         1 AT5       0.105700
     21 O3           5.7470     0.9970     0.3310 os         1 AT5      -0.294900
     22 CM3          6.0970     2.3090     0.7710 c3         1 AT5       0.112700
     23 O4           1.3610     2.0150     1.0100 o          1 AT5      -0.635500
     24 H8          -0.6420     1.1610     0.5080 hc         1 AT5       0.092700
     25 H111        -2.1890    -1.0240    -0.9630 hc         1 AT5       0.060200
     26 H112        -2.1780    -0.8080     0.7750 hc         1 AT5       0.060200
     27 H12         -3.2110     1.2040    -1.2640 hc         1 AT5       0.047700
     28 H171        -2.3610     2.3970     0.7160 hc         1 AT5       0.042033
     29 H172        -4.1060     2.4530     0.7160 hc         1 AT5       0.042033
     30 H173        -3.2630     1.3370     1.7910 hc         1 AT5       0.042033
     31 H13         -4.5030    -0.8420    -1.1240 h1         1 AT5       0.084700
     32 H141        -5.9960     1.5080     0.1340 h1         1 AT5       0.074200
     33 H142        -5.5590     1.3920    -1.5790 h1         1 AT5       0.074200
     34 H101        -1.1850     1.8440    -1.7970 hc         1 AT5       0.034700
     35 H102         0.5270     1.4920    -1.6780 hc         1 AT5       0.034700
     36 H103        -0.5600     0.3210    -2.4260 hc         1 AT5       0.034700
     37 HN4          3.7050     2.3690     1.0020 hn         1 AT5       0.331500
     38 HO1          3.3960    -2.6360    -1.0340 ho         1 AT5       0.451000
     39 HM21         6.3670    -1.5400     1.1130 h1         1 AT5       0.041367
     40 HM22         5.0660    -2.7490     1.1010 h1         1 AT5       0.041367
     41 HM23         6.4650    -2.9350     0.0230 h1         1 AT5       0.041367
     42 HM31         5.6870     3.0730     0.1080 h1         1 AT5       0.059033
     43 HM32         5.7710     2.4860     1.7960 h1         1 AT5       0.059033
     44 HM33         7.1810     2.3540     0.7330 h1         1 AT5       0.059033
@<TRIPOS>BOND
     1     1     2 2   
     2     2     3 1   
     3     2    12 1   
     4     3     4 1   
     5     3    11 1   
     6     3    24 1   
     7     4     5 1   
     8     4    25 1   
     9     4    26 1   
    10     5     6 1   
    11     5     7 1   
    12     5    27 1   
    13     6    28 1   
    14     6    29 1   
    15     6    30 1   
    16     7     8 1   
    17     7     9 1   
    18     7    31 1   
    19     9    10 1   
    20     9    32 1   
    21     9    33 1   
    22    11    34 1   
    23    11    35 1   
    24    11    36 1   
    25    12    13 1   
    26    12    17 2   
    27    13    14 1   
    28    13    23 2   
    29    14    15 1   
    30    14    37 1   
    31    15    16 2   
    32    15    21 1   
    33    16    17 1   
    34    16    19 1   
    35    17    18 1   
    36    18    38 1   
    37    19    20 1   
    38    20    39 1   
    39    20    40 1   
    40    20    41 1   
    41    21    22 1   
    42    22    42 1   
    43    22    43 1   
    44    22    44 1   
@<TRIPOS>SUBSTRUCTURE
     1 AT5         1 TEMP              0 ****  ****    0 ROOT
