@<TRIPOS>MOLECULE
AT5
   44    44     1     0     0
SMALL
No Charge or Current Charge


@<TRIPOS>ATOM
      1 O5           0.3080    -1.1920    -2.0690 o          1 AT5      -0.527100
      2 C7           0.4970    -0.2450    -1.3150 c          1 AT5       0.616300
      3 C8          -0.7100     0.7060    -1.0630 c3         1 AT5      -0.154700
      4 C11         -1.9790    -0.1050    -0.6500 c3         1 AT5      -0.063400
      5 C12         -3.2410     0.7210    -0.2440 c3         1 AT5      -0.060700
      6 C17         -2.9750     1.6600     0.9650 c3         1 AT5      -0.093100
      7 C13         -4.4780    -0.2100    -0.0320 c3         1 AT5       0.133300
      8 Cl12        -4.2380    -1.3330     1.3900 cl         1 AT5      -0.275000
      9 C14         -5.8210     0.5500     0.1020 c3         1 AT5       0.116600
     10 Cl16        -7.2520    -0.5790     0.0840 cl         1 AT5      -0.266000
     11 C10         -0.9490     1.6140    -2.2980 c3         1 AT5      -0.077100
     12 C6           1.8260    -0.0240    -0.6610 cc         1 AT5      -0.405400
     13 C5           2.2510     1.3380    -0.2680 c          1 AT5       0.603200
     14 N4           3.4620     1.4200     0.3380 ns         1 AT5      -0.422100
     15 C3           4.3100     0.3760     0.5650 cc         1 AT5       0.317700
     16 C2           3.9660    -0.9120     0.1710 cd         1 AT5      -0.178900
     17 C1           2.6860    -1.1000    -0.4600 cd         1 AT5       0.306100
     18 O1           2.3900    -2.3720    -0.7670 oh         1 AT5      -0.476100
     19 O2           4.7330    -2.0640     0.3390 os         1 AT5      -0.329100
     20 CM2          6.0320    -2.1140     0.9630 c3         1 AT5       0.128900
     21 O3           5.5260     0.5540     1.1710 os         1 AT5      -0.318100
     22 CM3          5.9520     1.8500     1.6270 c3         1 AT5       0.135900
     23 O4           1.6420     2.3680    -0.4830 o          1 AT5      -0.560000
     24 H8          -0.4620     1.3500    -0.2200 hc         1 AT5       0.092700
     25 H111        -2.2540    -0.7690    -1.4800 hc         1 AT5       0.060200
     26 H112        -1.7040    -0.7630     0.1850 hc         1 AT5       0.060200
     27 H12         -3.4950     1.3630    -1.0960 hc         1 AT5       0.047700
     28 H171        -2.2200     2.4140     0.7200 hc         1 AT5       0.042033
     29 H172        -3.8800     2.2050     1.2570 hc         1 AT5       0.042033
     30 H173        -2.6210     1.0940     1.8360 hc         1 AT5       0.042033
     31 H13         -4.5640    -0.8610    -0.9120 h1         1 AT5       0.084700
     32 H141        -5.8570     1.1120     1.0430 h1         1 AT5       0.074200
     33 H142        -5.9460     1.2470    -0.7360 h1         1 AT5       0.074200
     34 H101        -1.6690     2.4090    -2.0720 hc         1 AT5       0.034700
     35 H102        -0.0160     2.0940    -2.6160 hc         1 AT5       0.034700
     36 H103        -1.3320     1.0300    -3.1440 hc         1 AT5       0.034700
     37 HN4          3.7420     2.3520     0.6050 hn         1 AT5       0.331500
     38 HO1          3.1920    -2.8600    -0.4800 ho         1 AT5       0.490000
     39 HM21         6.7570    -1.4990     0.4150 h1         1 AT5       0.041367
     40 HM22         5.9820    -1.7750     2.0060 h1         1 AT5       0.041367
     41 HM23         6.4070    -3.1450     0.9670 h1         1 AT5       0.041367
     42 HM31         6.0160     2.5590     0.7920 h1         1 AT5       0.059033
     43 HM32         5.2580     2.2490     2.3780 h1         1 AT5       0.059033
     44 HM33         6.9450     1.7820     2.0880 h1         1 AT5       0.059033
@<TRIPOS>BOND
     1     1     2 2   
     2     2     3 1   
     3     2    12 1   
     4     3     4 1   
     5     3    11 1   
     6     3    24 1   
     7     4     5 1   
     8     4    25 1   
     9     4    26 1   
    10     5     6 1   
    11     5     7 1   
    12     5    27 1   
    13     6    28 1   
    14     6    29 1   
    15     6    30 1   
    16     7     8 1   
    17     7     9 1   
    18     7    31 1   
    19     9    10 1   
    20     9    32 1   
    21     9    33 1   
    22    11    34 1   
    23    11    35 1   
    24    11    36 1   
    25    12    13 1   
    26    12    17 2   
    27    13    14 1   
    28    13    23 2   
    29    14    15 1   
    30    14    37 1   
    31    15    16 2   
    32    15    21 1   
    33    16    17 1   
    34    16    19 1   
    35    17    18 1   
    36    18    38 1   
    37    19    20 1   
    38    20    39 1   
    39    20    40 1   
    40    20    41 1   
    41    21    22 1   
    42    22    42 1   
    43    22    43 1   
    44    22    44 1   
@<TRIPOS>SUBSTRUCTURE
     1 AT5         1 TEMP              0 ****  ****    0 ROOT
