@<TRIPOS>MOLECULE
AT6
   37    38     1     0     0
SMALL
No Charge or Current Charge


@<TRIPOS>ATOM
      1 C2           5.3350     1.0140    -0.5570 ca         1 AT6       0.003700
      2 C1           5.9690    -0.0160     0.1540 ca         1 AT6      -0.229000
      3 C6           5.2010    -0.7900     1.0260 ca         1 AT6       0.603900
      4 N5           3.9020    -0.6390     1.2410 nb         1 AT6      -0.756000
      5 C4           3.2830     0.3510     0.5620 ca         1 AT6       0.395300
      6 C3           3.9590     1.1930    -0.3420 ca         1 AT6      -0.211000
      7 C10          1.7920     0.5130     0.8070 c3         1 AT6      -0.142700
      8 C11          0.9570    -0.2090    -0.2630 c3         1 AT6       0.103000
      9 N12         -0.4780    -0.0280    -0.0380 ns         1 AT6      -0.502900
     10 C24         -1.4610    -0.4830    -0.8890 c          1 AT6       0.609700
     11 O25         -1.1750    -1.0850    -1.9160 o          1 AT6      -0.594100
     12 C26         -2.8980    -0.2020    -0.4910 ca         1 AT6      -0.129600
     13 C27         -3.2320     0.4970     0.6960 ca         1 AT6      -0.078500
     14 C28         -4.5760     0.7390     1.0310 ca         1 AT6      -0.082000
     15 C29         -5.6120     0.2900     0.1920 ca         1 AT6       0.001000
     16 C30         -5.2920    -0.4040    -0.9880 ca         1 AT6      -0.082000
     17 C31         -3.9490    -0.6470    -1.3260 ca         1 AT6      -0.078500
     18 C32         -6.9850     0.5390     0.5370 cg         1 AT6       0.319000
     19 N33         -8.0980     0.7470     0.8250 n1         1 AT6      -0.443000
     20 N7           5.6930    -1.8000     1.7460 nv         1 AT6      -1.055900
     21 C9           6.1040     1.8960    -1.5260 c3         1 AT6      -0.054800
     22 H1           7.0300    -0.2100     0.0330 ha         1 AT6       0.120000
     23 H3           3.4150     1.9720    -0.8690 ha         1 AT6       0.123000
     24 H101         1.5220     0.1280     1.7980 hc         1 AT6       0.055700
     25 H102         1.5340     1.5790     0.8070 hc         1 AT6       0.055700
     26 H111         1.2140     0.1840    -1.2570 h1         1 AT6       0.065200
     27 H112         1.1870    -1.2830    -0.2490 h1         1 AT6       0.065200
     28 HN12        -0.7780     0.4600     0.7960 hn         1 AT6       0.314500
     29 H27         -2.4640     0.8620     1.3730 ha         1 AT6       0.131000
     30 H28         -4.8110     1.2780     1.9480 ha         1 AT6       0.130000
     31 H30         -6.0830    -0.7580    -1.6470 ha         1 AT6       0.130000
     32 H31         -3.7280    -1.1870    -2.2450 ha         1 AT6       0.131000
     33 HN71         6.5520    -2.2290     1.4200 hn         1 AT6       0.470500
     34 HN72         4.9990    -2.4180     2.1490 hn         1 AT6       0.470500
     35 H91          6.0650     1.4850    -2.5420 hc         1 AT6       0.048033
     36 H92          5.6880     2.9100    -1.5580 hc         1 AT6       0.048033
     37 H93          7.1590     1.9810    -1.2380 hc         1 AT6       0.048033
@<TRIPOS>BOND
     1     1     2 ar  
     2     1     6 ar  
     3     1    21 1   
     4     2     3 ar  
     5     2    22 1   
     6     3     4 ar  
     7     3    20 1   
     8     4     5 ar  
     9     5     6 ar  
    10     5     7 1   
    11     6    23 1   
    12     7     8 1   
    13     7    24 1   
    14     7    25 1   
    15     8     9 1   
    16     8    26 1   
    17     8    27 1   
    18     9    10 1   
    19     9    28 1   
    20    10    11 2   
    21    10    12 1   
    22    12    13 ar  
    23    12    17 ar  
    24    13    14 ar  
    25    13    29 1   
    26    14    15 ar  
    27    14    30 1   
    28    15    16 ar  
    29    15    18 1   
    30    16    17 ar  
    31    16    31 1   
    32    17    32 1   
    33    18    19 3   
    34    20    33 1   
    35    20    34 1   
    36    21    35 1   
    37    21    36 1   
    38    21    37 1   
@<TRIPOS>SUBSTRUCTURE
     1 AT6         1 TEMP              0 ****  ****    0 ROOT
