@<TRIPOS>MOLECULE
AT6
   37    38     1     0     0
SMALL
bcc


@<TRIPOS>ATOM
      1 C2           5.3710     1.1150    -0.3900 ca         1 AT6       0.003700
      2 C1           5.8580    -0.0610     0.1420 ca         1 AT6      -0.312300
      3 C6           4.9680    -0.9440     0.7790 ca         1 AT6       0.669200
      4 N5           3.6710    -0.6820     0.8950 nb         1 AT6      -0.756000
      5 C4           3.2000     0.4590     0.3860 ca         1 AT6       0.460600
      6 C3           4.0020     1.3790    -0.2620 ca         1 AT6      -0.294300
      7 C10          1.7240     0.6900     0.5440 c3         1 AT6      -0.142700
      8 C11          0.9110    -0.3440    -0.2290 c3         1 AT6       0.103000
      9 N12         -0.5040    -0.1460     0.0050 ns         1 AT6      -0.569900
     10 C24         -1.4540    -0.4870    -0.8770 c          1 AT6       0.676700
     11 O25         -1.2210    -1.0020    -1.9610 o          1 AT6      -0.594100
     12 C26         -2.8640    -0.1990    -0.4560 ca         1 AT6      -0.129600
     13 C27         -3.1900     0.8760     0.3680 ca         1 AT6      -0.096500
     14 C28         -4.5070     1.1200     0.7130 ca         1 AT6      -0.100000
     15 C29         -5.5080     0.2790     0.2340 ca         1 AT6       0.001000
     16 C30         -5.1930    -0.7950    -0.5990 ca         1 AT6      -0.100000
     17 C31         -3.8750    -1.0200    -0.9480 ca         1 AT6      -0.096500
     18 C32         -6.8690     0.5190     0.5950 cg         1 AT6       0.229800
     19 N33         -7.9660     0.7090     0.8900 n1         1 AT6      -0.353800
     20 N7           5.4230    -2.0950     1.3530 nv         1 AT6      -0.945500
     21 C9           6.2700     2.0790    -1.1030 c3         1 AT6      -0.054800
     22 H1           6.9110    -0.3070     0.0740 ha         1 AT6       0.138000
     23 H3           3.5770     2.2900    -0.6640 ha         1 AT6       0.141000
     24 H101         1.4680     0.6330     1.6070 hc         1 AT6       0.055700
     25 H102         1.4600     1.6910     0.2000 hc         1 AT6       0.055700
     26 H111         1.1040    -0.2480    -1.2970 h1         1 AT6       0.065200
     27 H112         1.2130    -1.3510     0.0700 h1         1 AT6       0.065200
     28 HN12        -0.7800     0.1150     0.9390 hn         1 AT6       0.314500
     29 H27         -2.4260     1.5500     0.7310 ha         1 AT6       0.149000
     30 H28         -4.7570     1.9620     1.3450 ha         1 AT6       0.148000
     31 H30         -5.9750    -1.4440    -0.9700 ha         1 AT6       0.148000
     32 H31         -3.6320    -1.8470    -1.6000 ha         1 AT6       0.149000
     33 HN71         6.3020    -2.4630     1.0310 hn         1 AT6       0.415300
     34 HN72         4.7290    -2.7970     1.5510 hn         1 AT6       0.415300
     35 H91          6.1230     2.0100    -2.1820 hc         1 AT6       0.048033
     36 H92          6.0530     3.1070    -0.8150 hc         1 AT6       0.048033
     37 H93          7.3210     1.8790    -0.8970 hc         1 AT6       0.048033
@<TRIPOS>BOND
     1     1     2 ar  
     2     1     6 ar  
     3     1    21 1   
     4     2     3 ar  
     5     2    22 1   
     6     3     4 ar  
     7     3    20 1   
     8     4     5 ar  
     9     5     6 ar  
    10     5     7 1   
    11     6    23 1   
    12     7     8 1   
    13     7    24 1   
    14     7    25 1   
    15     8     9 1   
    16     8    26 1   
    17     8    27 1   
    18     9    10 1   
    19     9    28 1   
    20    10    11 2   
    21    10    12 1   
    22    12    13 ar  
    23    12    17 ar  
    24    13    14 ar  
    25    13    29 1   
    26    14    15 ar  
    27    14    30 1   
    28    15    16 ar  
    29    15    18 1   
    30    16    17 ar  
    31    16    31 1   
    32    17    32 1   
    33    18    19 3   
    34    20    33 1   
    35    20    34 1   
    36    21    35 1   
    37    21    36 1   
    38    21    37 1   
@<TRIPOS>SUBSTRUCTURE
     1 AT6         1 TEMP              0 ****  ****    0 ROOT
