@<TRIPOS>MOLECULE
AT8
   52    55     1     0     0
SMALL
No Charge or Current Charge


@<TRIPOS>ATOM
      1 Cl2          5.5440     2.3390     1.0180 cl         1 AT8      -0.200000
      2 C23          4.6890     0.8700     0.5460 ca         1 AT8       0.126000
      3 C8           5.3400    -0.1490    -0.1960 cp         1 AT8      -0.021000
      4 C7           6.7700    -0.0310    -0.6000 cp         1 AT8      -0.041000
      5 C6           7.0820     0.3660    -1.9220 ca         1 AT8      -0.091000
      6 C5           8.4150     0.4850    -2.3460 ca         1 AT8      -0.116000
      7 C4           9.4590     0.2040    -1.4530 ca         1 AT8      -0.102000
      8 C3           9.1690    -0.1990    -0.1390 ca         1 AT8      -0.113000
      9 C2           7.8340    -0.3200     0.3000 ca         1 AT8      -0.048300
     10 C1           7.5800    -0.7810     1.7340 c3         1 AT8      -0.035100
     11 C            7.3750    -2.3050     1.8300 c3         1 AT8      -0.086100
     12 C22          3.3400     0.7360     0.9150 ca         1 AT8      -0.104000
     13 C11          2.6110    -0.4130     0.5510 ca         1 AT8      -0.083300
     14 C10          3.2450    -1.4240    -0.1940 ca         1 AT8      -0.085000
     15 C9           4.5930    -1.2910    -0.5650 ca         1 AT8      -0.100000
     16 C12          1.1500    -0.5590     0.9540 c3         1 AT8       0.206100
     17 N            0.2690    -0.1450    -0.1520 n7         1 AT8      -0.865400
     18 C13         -1.1760    -0.2170     0.1350 c3         1 AT8       0.163800
     19 C14         -1.9830     0.1990    -1.1060 c3         1 AT8      -0.095700
     20 C15         -3.4630     0.1460    -0.8640 cc         1 AT8       0.424800
     21 N2          -4.2140     1.2180    -0.3910 na         1 AT8      -0.308600
     22 C21         -5.5010     0.7890    -0.2940 ca         1 AT8      -0.077200
     23 C16         -5.5120    -0.5130    -0.7030 ca         1 AT8       0.077400
     24 N1          -4.2380    -0.9390    -1.0660 nd         1 AT8      -0.571100
     25 C20         -6.6520     1.4660     0.1270 ca         1 AT8      -0.100000
     26 C19         -7.8670     0.7500     0.1210 ca         1 AT8       0.134000
     27 Cl1         -9.3400     1.5680     0.6440 cl         1 AT8      -0.174000
     28 C18         -7.8940    -0.6060    -0.3020 ca         1 AT8       0.096000
     29 Cl          -9.4040    -1.5200    -0.3180 cl         1 AT8      -0.175000
     30 C17         -6.7070    -1.2470    -0.7190 ca         1 AT8      -0.034000
     31 H1           6.2770     0.5850    -2.6200 ha         1 AT8       0.115000
     32 H2           8.6370     0.7940    -3.3650 ha         1 AT8       0.114000
     33 H3          10.4930     0.2930    -1.7790 ha         1 AT8       0.112000
     34 H4           9.9880    -0.4220     0.5410 ha         1 AT8       0.112000
     35 H5           8.4230    -0.5000     2.3770 hc         1 AT8       0.050200
     36 H6           6.7050    -0.2770     2.1590 hc         1 AT8       0.050200
     37 H7           6.5060    -2.6180     1.2410 hc         1 AT8       0.034700
     38 H8           8.2570    -2.8370     1.4550 hc         1 AT8       0.034700
     39 H9           7.2090    -2.6040     2.8720 hc         1 AT8       0.034700
     40 H10          2.8610     1.5280     1.4850 ha         1 AT8       0.126000
     41 H11          2.6890    -2.3120    -0.4890 ha         1 AT8       0.131000
     42 H12          5.0720    -2.0800    -1.1410 ha         1 AT8       0.122000
     43 H13          0.9570    -1.6050     1.2290 h1         1 AT8       0.042200
     44 H14          0.9600     0.0530     1.8480 h1         1 AT8       0.042200
     45 H15          0.5060     0.8250    -0.3930 hn         1 AT8       0.408000
     46 H17         -1.4610    -1.2410     0.4170 h1         1 AT8       0.048700
     47 H18         -1.4380     0.4440     0.9730 h1         1 AT8       0.048700
     48 H19         -1.6980     1.2140    -1.4060 hc         1 AT8       0.063700
     49 H20         -1.7260    -0.4610    -1.9430 hc         1 AT8       0.063700
     50 H21         -3.8570     2.1390    -0.1680 hn         1 AT8       0.360000
     51 H23         -6.6140     2.5040     0.4470 ha         1 AT8       0.136000
     52 H24         -6.7170    -2.2840    -1.0430 ha         1 AT8       0.148000
@<TRIPOS>BOND
     1     1     2 1   
     2     2     3 ar  
     3     2    12 ar  
     4     3     4 1   
     5     3    15 ar  
     6     4     5 ar  
     7     4     9 ar  
     8     5     6 ar  
     9     5    31 1   
    10     6     7 ar  
    11     6    32 1   
    12     7     8 ar  
    13     7    33 1   
    14     8     9 ar  
    15     8    34 1   
    16     9    10 1   
    17    10    11 1   
    18    10    35 1   
    19    10    36 1   
    20    11    37 1   
    21    11    38 1   
    22    11    39 1   
    23    12    13 ar  
    24    12    40 1   
    25    13    14 ar  
    26    13    16 1   
    27    14    15 ar  
    28    14    41 1   
    29    15    42 1   
    30    16    17 1   
    31    16    43 1   
    32    16    44 1   
    33    17    18 1   
    34    17    45 1   
    35    18    19 1   
    36    18    46 1   
    37    18    47 1   
    38    19    20 1   
    39    19    48 1   
    40    19    49 1   
    41    20    21 1   
    42    20    24 2   
    43    21    22 1   
    44    21    50 1   
    45    22    23 ar  
    46    22    25 ar  
    47    23    24 1   
    48    23    30 ar  
    49    25    26 ar  
    50    25    51 1   
    51    26    27 1   
    52    26    28 ar  
    53    28    29 1   
    54    28    30 ar  
    55    30    52 1   
@<TRIPOS>SUBSTRUCTURE
     1 AT8         1 TEMP              0 ****  ****    0 ROOT
