@<TRIPOS>MOLECULE
AT8
   52    55     1     0     0
SMALL
bcc


@<TRIPOS>ATOM
      1 CL2          5.9350     1.9290     1.8400 cl         1 AT8      -0.108400
      2 C23          4.8620     0.8640     0.9870 ca         1 AT8       0.034400
      3 C8           5.3580     0.0630    -0.0350 cp         1 AT8      -0.021000
      4 C7           6.7840     0.0730    -0.4420 cp         1 AT8      -0.041000
      5 C6           7.1390     0.7420    -1.6110 ca         1 AT8      -0.109000
      6 C5           8.4550     0.7630    -2.0490 ca         1 AT8      -0.134000
      7 C4           9.4300     0.1080    -1.3100 ca         1 AT8      -0.120000
      8 C3           9.0790    -0.5620    -0.1470 ca         1 AT8      -0.131000
      9 C2           7.7620    -0.5930     0.3060 ca         1 AT8      -0.048300
     10 C1           7.4210    -1.3910     1.5360 c3         1 AT8      -0.035100
     11 C            6.9990    -2.8180     1.1910 c3         1 AT8      -0.086100
     12 C22          3.5220     0.8510     1.3490 ca         1 AT8      -0.122000
     13 C11          2.6280     0.0260     0.6810 ca         1 AT8      -0.083300
     14 C10          3.1020    -0.7690    -0.3600 ca         1 AT8      -0.103000
     15 C9           4.4420    -0.7490    -0.7040 ca         1 AT8      -0.118000
     16 C12          1.1760    -0.0080     1.0740 c3         1 AT8       0.206100
     17 N            0.3220     0.2270    -0.0740 n7         1 AT8      -0.810200
     18 C13         -1.0860     0.0980     0.2420 c3         1 AT8       0.163800
     19 C14         -1.9270     0.3440    -1.0060 c3         1 AT8      -0.095700
     20 C15         -3.3810     0.1630    -0.7460 cc         1 AT8       0.424800
     21 N2          -4.3130     1.0320    -1.2180 na         1 AT8      -0.258300
     22 C21         -5.5380     0.5790    -0.8210 ca         1 AT8      -0.077200
     23 C16         -5.2620    -0.5930    -0.0970 ca         1 AT8       0.077400
     24 N1          -3.9110    -0.8220    -0.0700 nd         1 AT8      -0.571100
     25 C20         -6.8240     1.0570    -1.0090 ca         1 AT8      -0.118000
     26 C19         -7.8500     0.3200    -0.4450 ca         1 AT8       0.042400
     27 CL1         -9.4740     0.8710    -0.6460 cl         1 AT8      -0.082400
     28 C18         -7.5930    -0.8550     0.2820 ca         1 AT8       0.004400
     29 CL          -8.9070    -1.7420     0.9700 cl         1 AT8      -0.083400
     30 C17         -6.3050    -1.3220     0.4630 ca         1 AT8      -0.052000
     31 H1           6.3750     1.2560    -2.1800 ha         1 AT8       0.133000
     32 H2           8.7160     1.2880    -2.9590 ha         1 AT8       0.132000
     33 H3          10.4620     0.1180    -1.6370 ha         1 AT8       0.130000
     34 H4           9.8430    -1.0770     0.4230 ha         1 AT8       0.130000
     35 H5           8.2910    -1.4200     2.1960 hc         1 AT8       0.050200
     36 H6           6.6250    -0.9090     2.1040 hc         1 AT8       0.050200
     37 H7           6.1140    -2.8250     0.5530 hc         1 AT8       0.034700
     38 H8           7.7950    -3.3470     0.6640 hc         1 AT8       0.034700
     39 H9           6.7620    -3.3820     2.0940 hc         1 AT8       0.034700
     40 H10          3.1740     1.4900     2.1500 ha         1 AT8       0.144000
     41 H11          2.4170    -1.4090    -0.9010 ha         1 AT8       0.149000
     42 H12          4.7990    -1.3780    -1.5100 ha         1 AT8       0.140000
     43 H13          0.9370    -1.0000     1.4710 h1         1 AT8       0.042200
     44 H14          1.0020     0.7010     1.8960 h1         1 AT8       0.042200
     45 H15          0.5020     1.1600    -0.4260 hn         1 AT8       0.352800
     46 H17         -1.2670    -0.9160     0.6050 h1         1 AT8       0.048700
     47 H18         -1.4140     0.7790     1.0420 h1         1 AT8       0.048700
     48 H19         -1.7480     1.3520    -1.3850 hc         1 AT8       0.063700
     49 H20         -1.6160    -0.3480    -1.7940 hc         1 AT8       0.063700
     50 H21         -4.1260     1.8650    -1.7550 hn         1 AT8       0.309700
     51 H23         -7.0260     1.9610    -1.5660 ha         1 AT8       0.154000
     52 H24         -6.1190    -2.2280     1.0240 ha         1 AT8       0.166000
@<TRIPOS>BOND
     1     1     2 1   
     2     2     3 ar  
     3     2    12 ar  
     4     3     4 1   
     5     3    15 ar  
     6     4     5 ar  
     7     4     9 ar  
     8     5     6 ar  
     9     5    31 1   
    10     6     7 ar  
    11     6    32 1   
    12     7     8 ar  
    13     7    33 1   
    14     8     9 ar  
    15     8    34 1   
    16     9    10 1   
    17    10    11 1   
    18    10    35 1   
    19    10    36 1   
    20    11    37 1   
    21    11    38 1   
    22    11    39 1   
    23    12    13 ar  
    24    12    40 1   
    25    13    14 ar  
    26    13    16 1   
    27    14    15 ar  
    28    14    41 1   
    29    15    42 1   
    30    16    17 1   
    31    16    43 1   
    32    16    44 1   
    33    17    18 1   
    34    17    45 1   
    35    18    19 1   
    36    18    46 1   
    37    18    47 1   
    38    19    20 1   
    39    19    48 1   
    40    19    49 1   
    41    20    21 1   
    42    20    24 2   
    43    21    22 1   
    44    21    50 1   
    45    22    23 ar  
    46    22    25 ar  
    47    23    24 1   
    48    23    30 ar  
    49    25    26 ar  
    50    25    51 1   
    51    26    27 1   
    52    26    28 ar  
    53    28    29 1   
    54    28    30 ar  
    55    30    52 1   
@<TRIPOS>SUBSTRUCTURE
     1 AT8         1 TEMP              0 ****  ****    0 ROOT
