@<TRIPOS>MOLECULE
ATA
   61    61     1     0     0
SMALL
abcg2


@<TRIPOS>ATOM
      1 N          -16.1880    36.9520    61.3950 n8         1 ATA      -0.974200
      2 CA         -15.4120    35.9800    60.6080 c3         1 ATA       0.024500
      3 CB         -14.5970    35.1140    61.5690 c3         1 ATA      -0.042400
      4 CG         -13.6880    34.1160    60.8490 c3         1 ATA      -0.145400
      5 CC         -16.3520    35.1020    59.7370 c          1 ATA       0.709000
      6 O1         -16.0820    35.0450    58.5080 o          1 ATA      -0.731000
      7 O2         -17.2870    34.4990    60.3170 o          1 ATA      -0.731000
      8 C          -12.8940    33.2720    61.8210 c          1 ATA       0.594100
      9 O          -13.4370    32.6110    62.7100 o          1 ATA      -0.634100
     10 N5          -5.4230    30.1720    62.1010 nb         1 ATA      -0.351000
     11 C6          -5.9180    29.4700    63.1300 ca         1 ATA       0.444900
     12 N1          -7.2360    29.3540    63.4240 nb         1 ATA      -0.289000
     13 C2          -8.0360    30.0020    62.5850 ca         1 ATA       0.329300
     14 N3          -7.6780    30.6890    61.5150 nb         1 ATA      -0.327000
     15 C4          -6.3380    30.7570    61.3180 ca         1 ATA       0.441900
     16 N2         -11.5570    33.2880    61.6510 ns         1 ATA      -0.505900
     17 C3         -10.6430    32.5160    62.4650 c3         1 ATA       0.038700
     18 C7          -9.2860    33.2240    62.4350 c          1 ATA       0.584100
     19 O3          -8.9410    33.8760    61.4450 o          1 ATA      -0.671100
     20 C5         -10.5530    31.0750    61.9160 c3         1 ATA       0.030600
     21 SG          -9.7470    29.8860    63.0230 ss         1 ATA      -0.340300
     22 N7          -5.9320    31.4690    60.2550 nu         1 ATA      -0.923100
     23 C12         -3.6120    28.9040    63.8280 c3         1 ATA       0.245800
     24 C13         -2.9610    28.1240    64.9580 c3         1 ATA      -0.110100
     25 C8          -4.5440    31.8240    59.9630 c3         1 ATA       0.248500
     26 C9          -4.4080    32.0890    58.4680 c3         1 ATA      -0.111600
     27 C10         -4.0940    33.0220    60.8010 c3         1 ATA      -0.111600
     28 ND          -8.5320    33.0680    63.5220 ns         1 ATA      -0.455900
     29 CAD         -7.1440    33.4680    63.6060 c3         1 ATA      -0.051000
     30 CD          -6.4680    32.8350    64.8400 c          1 ATA       0.702000
     31 OD          -5.2280    32.9980    64.9170 o          1 ATA      -0.731500
     32 OT          -7.2100    32.2330    65.6540 o          1 ATA      -0.731500
     33 HN'1       -16.7190    37.5510    60.7700 hn         1 ATA       0.361000
     34 HN'2       -15.5440    37.5650    61.8880 hn         1 ATA       0.361000
     35 HA         -14.7180    36.4760    59.9180 h1         1 ATA       0.000700
     36 HB'1       -13.9850    35.7710    62.1950 hc         1 ATA       0.041200
     37 HB'2       -15.2830    34.5800    62.2280 hc         1 ATA       0.041200
     38 HG'1       -14.2930    33.4270    60.2530 hc         1 ATA       0.066700
     39 HG'2       -13.0210    34.6390    60.1610 hc         1 ATA       0.066700
     40 HN         -11.1400    33.8430    60.9190 hn         1 ATA       0.335500
     41 H2         -11.0270    32.4790    63.4830 h1         1 ATA       0.088700
     42 HB1        -11.5670    30.6980    61.7940 h1         1 ATA       0.089700
     43 HB2        -10.0490    31.0570    60.9530 h1         1 ATA       0.089700
     44 H7          -6.6600    31.9720    59.7700 hn         1 ATA       0.507000
     45 H11         -5.4650    28.3550    64.7300 hn         1 ATA       0.506000
     46 H121        -3.3110    28.4950    62.8600 h1         1 ATA       0.051700
     47 H122        -3.2880    29.9480    63.8480 h1         1 ATA       0.051700
     48 H131        -1.8760    28.1650    64.8600 hc         1 ATA       0.035033
     49 H132        -3.2320    28.5440    65.9290 hc         1 ATA       0.035033
     50 H133        -3.2670    27.0760    64.9370 hc         1 ATA       0.035033
     51 H8          -3.9380    30.9600    60.2310 h1         1 ATA       0.067700
     52 H91         -3.3770    32.3500    58.2280 hc         1 ATA       0.042200
     53 H92         -4.6890    31.2090    57.8880 hc         1 ATA       0.042200
     54 H93         -5.0470    32.9230    58.1660 hc         1 ATA       0.042200
     55 H101        -3.0450    33.2500    60.6020 hc         1 ATA       0.042200
     56 H102        -4.6920    33.9030    60.5560 hc         1 ATA       0.042200
     57 H103        -4.2070    32.8130    61.8650 hc         1 ATA       0.042200
     58 H3          -8.8450    32.5040    64.3020 hn         1 ATA       0.350500
     59 HA'1        -6.6110    33.1660    62.7040 h1         1 ATA       0.033700
     60 HA'2        -7.0520    34.5550    63.6850 h1         1 ATA       0.033700
     61 N11         -5.0610    28.8470    63.9490 nu         1 ATA      -0.921100
@<TRIPOS>BOND
     1     1     2 1   
     2     1    33 1   
     3     1    34 1   
     4     2     3 1   
     5     2     5 1   
     6     2    35 1   
     7     3     4 1   
     8     3    36 1   
     9     3    37 1   
    10     4     8 1   
    11     4    38 1   
    12     4    39 1   
    13     5     6 1   
    14     5     7 1   
    15     8     9 2   
    16     8    16 1   
    17    10    11 ar  
    18    10    15 ar  
    19    11    12 ar  
    20    11    61 1   
    21    12    13 ar  
    22    13    14 ar  
    23    13    21 1   
    24    14    15 ar  
    25    15    22 1   
    26    16    17 1   
    27    16    40 1   
    28    17    18 1   
    29    17    20 1   
    30    17    41 1   
    31    18    19 2   
    32    18    28 1   
    33    20    21 1   
    34    20    42 1   
    35    20    43 1   
    36    22    25 1   
    37    22    44 1   
    38    23    24 1   
    39    23    46 1   
    40    23    47 1   
    41    23    61 1   
    42    24    48 1   
    43    24    49 1   
    44    24    50 1   
    45    25    26 1   
    46    25    27 1   
    47    25    51 1   
    48    26    52 1   
    49    26    53 1   
    50    26    54 1   
    51    27    55 1   
    52    27    56 1   
    53    27    57 1   
    54    28    29 1   
    55    28    58 1   
    56    29    30 1   
    57    29    59 1   
    58    29    60 1   
    59    30    31 1   
    60    30    32 1   
    61    45    61 1   
@<TRIPOS>SUBSTRUCTURE
     1 ATA         1 TEMP              0 ****  ****    0 ROOT
