@<TRIPOS>MOLECULE
ATA
   61    61     1     0     0
SMALL
No Charge or Current Charge


@<TRIPOS>ATOM
      1 N          -15.5460    37.3150    61.8220 n8         1 ATA      -0.974200
      2 CA         -15.1170    36.2230    60.8790 c3         1 ATA       0.024500
      3 CB         -14.4320    35.0780    61.6760 c3         1 ATA      -0.042400
      4 CG         -13.7460    34.0130    60.7830 c3         1 ATA      -0.145400
      5 CC         -16.2310    35.6860    59.8780 c          1 ATA       0.709000
      6 O1         -16.2110    36.0950    58.7230 o          1 ATA      -0.731000
      7 O2         -17.0930    34.9220    60.2960 o          1 ATA      -0.731000
      8 C          -13.0150    32.9640    61.6260 c          1 ATA       0.594100
      9 O          -13.6020    32.0850    62.2410 o          1 ATA      -0.634100
     10 N5          -5.3830    30.2030    61.9540 nb         1 ATA      -0.351000
     11 C6          -5.8900    29.6310    63.0550 ca         1 ATA       0.444900
     12 N1          -7.1860    29.3770    63.2810 nb         1 ATA      -0.289000
     13 C2          -8.0150    29.7500    62.2880 ca         1 ATA       0.329300
     14 N3          -7.6200    30.3240    61.1350 nb         1 ATA      -0.327000
     15 C4          -6.3010    30.5290    61.0330 ca         1 ATA       0.441900
     16 N2         -11.6430    33.0580    61.6180 ns         1 ATA      -0.505900
     17 C3         -10.7180    32.1470    62.3350 c3         1 ATA       0.038700
     18 C7          -9.3400    32.8500    62.5000 c          1 ATA       0.584100
     19 O3          -8.9260    33.6910    61.7080 o          1 ATA      -0.671100
     20 C5         -10.6180    30.7980    61.5740 c3         1 ATA       0.030600
     21 SG          -9.7620    29.4650    62.5460 ss         1 ATA      -0.340300
     22 N7          -5.8790    31.1300    59.8630 nu         1 ATA      -0.923100
     23 C12         -3.5690    29.5140    64.1140 c3         1 ATA       0.245800
     24 C13         -2.9800    28.9550    65.4180 c3         1 ATA      -0.110100
     25 C8          -4.5500    31.6780    59.5680 c3         1 ATA       0.248500
     26 C9          -4.3960    31.8300    58.0430 c3         1 ATA      -0.111600
     27 C10         -4.3590    33.0200    60.3050 c3         1 ATA      -0.111600
     28 ND          -8.6240    32.5040    63.6260 ns         1 ATA      -0.455900
     29 CAD         -7.2900    33.0370    63.9840 c3         1 ATA      -0.051000
     30 CD          -6.8590    32.6450    65.4280 c          1 ATA       0.702000
     31 OD          -5.8560    33.1730    65.8850 o          1 ATA      -0.731500
     32 OT          -7.5640    31.8750    66.0660 o          1 ATA      -0.731500
     33 HN'1       -15.8690    38.1230    61.2760 hn         1 ATA       0.361000
     34 HN'2       -14.7270    37.6690    62.3290 hn         1 ATA       0.361000
     35 HA         -14.3360    36.6770    60.2530 h1         1 ATA       0.000700
     36 HB'1       -13.6750    35.5090    62.3420 hc         1 ATA       0.041200
     37 HB'2       -15.1730    34.5860    62.3190 hc         1 ATA       0.041200
     38 HG'1       -14.5100    33.5040    60.1860 hc         1 ATA       0.066700
     39 HG'2       -13.0350    34.5210    60.1210 hc         1 ATA       0.066700
     40 HN         -11.2370    33.8210    61.0860 hn         1 ATA       0.335500
     41 H2         -11.1230    31.9630    63.3380 h1         1 ATA       0.088700
     42 HB1        -11.6350    30.4400    61.3710 h1         1 ATA       0.089700
     43 HB2        -10.1250    30.9410    60.6040 h1         1 ATA       0.089700
     44 H7          -6.6330    31.3720    59.2230 hn         1 ATA       0.507000
     45 H11         -5.4590    28.8820    64.8950 hn         1 ATA       0.506000
     46 H121        -3.0710    29.0350    63.2590 h1         1 ATA       0.051700
     47 H122        -3.3680    30.5940    64.0610 h1         1 ATA       0.051700
     48 H131        -1.9000    29.1400    65.4540 hc         1 ATA       0.035033
     49 H132        -3.4380    29.4360    66.2910 hc         1 ATA       0.035033
     50 H133        -3.1430    27.8730    65.4880 hc         1 ATA       0.035033
     51 H8          -3.7740    30.9770    59.9100 h1         1 ATA       0.067700
     52 H91         -3.3990    32.2120    57.7960 hc         1 ATA       0.042200
     53 H92         -4.5200    30.8610    57.5440 hc         1 ATA       0.042200
     54 H93         -5.1400    32.5270    57.6380 hc         1 ATA       0.042200
     55 H101        -3.3680    33.4370    60.0890 hc         1 ATA       0.042200
     56 H102        -5.1150    33.7500    59.9930 hc         1 ATA       0.042200
     57 H103        -4.4380    32.8850    61.3900 hc         1 ATA       0.042200
     58 H3          -9.0360    31.8140    64.2470 hn         1 ATA       0.350500
     59 HA'1        -6.5470    32.6440    63.2790 h1         1 ATA       0.033700
     60 HA'2        -7.3060    34.1320    63.9100 h1         1 ATA       0.033700
     61 N11         -5.0160    29.2660    64.0610 nu         1 ATA      -0.921100
@<TRIPOS>BOND
     1     1     2 1   
     2     1    33 1   
     3     1    34 1   
     4     2     3 1   
     5     2     5 1   
     6     2    35 1   
     7     3     4 1   
     8     3    36 1   
     9     3    37 1   
    10     4     8 1   
    11     4    38 1   
    12     4    39 1   
    13     5     6 1   
    14     5     7 1   
    15     8     9 2   
    16     8    16 1   
    17    10    11 ar  
    18    10    15 ar  
    19    11    12 ar  
    20    11    61 1   
    21    12    13 ar  
    22    13    14 ar  
    23    13    21 1   
    24    14    15 ar  
    25    15    22 1   
    26    16    17 1   
    27    16    40 1   
    28    17    18 1   
    29    17    20 1   
    30    17    41 1   
    31    18    19 2   
    32    18    28 1   
    33    20    21 1   
    34    20    42 1   
    35    20    43 1   
    36    22    25 1   
    37    22    44 1   
    38    23    24 1   
    39    23    46 1   
    40    23    47 1   
    41    23    61 1   
    42    24    48 1   
    43    24    49 1   
    44    24    50 1   
    45    25    26 1   
    46    25    27 1   
    47    25    51 1   
    48    26    52 1   
    49    26    53 1   
    50    26    54 1   
    51    27    55 1   
    52    27    56 1   
    53    27    57 1   
    54    28    29 1   
    55    28    58 1   
    56    29    30 1   
    57    29    59 1   
    58    29    60 1   
    59    30    31 1   
    60    30    32 1   
    61    45    61 1   
@<TRIPOS>SUBSTRUCTURE
     1 ATA         1 TEMP              0 ****  ****    0 ROOT
