@<TRIPOS>MOLECULE
ATE
   50    53     1     0     0
SMALL
bcc


@<TRIPOS>ATOM
      1 O1           4.3780    -0.2580     1.5970 oh         1 ATE      -0.599800
      2 C3           4.3050    -0.0520     0.1960 c6         1 ATE       0.150100
      3 C2           3.7310     1.3190    -0.1440 c6         1 ATE      -0.110400
      4 C1           2.2600     1.4550     0.2400 c6         1 ATE      -0.063400
      5 C4           3.4270    -1.1510    -0.3840 c6         1 ATE      -0.063400
      6 C5           1.9600    -1.0040     0.0130 c6         1 ATE      -0.054700
      7 C6           1.1150    -2.1660    -0.4940 c6         1 ATE      -0.069400
      8 C10          1.3660     0.3690    -0.3830 c6         1 ATE      -0.030000
      9 C19          1.3360     0.5600    -1.9060 c3         1 ATE      -0.081100
     10 C9          -0.0630     0.4370     0.2160 c6         1 ATE      -0.047700
     11 C11         -0.7360     1.8120     0.0520 c6         1 ATE      -0.069400
     12 C8          -0.9550    -0.7300    -0.2720 c6         1 ATE      -0.041700
     13 C7          -0.3080    -2.0760     0.0380 c6         1 ATE      -0.070400
     14 C14         -2.3060    -0.5730     0.3960 c5         1 ATE      -0.066700
     15 C15         -3.4020    -1.6370     0.2890 c5         1 ATE      -0.042200
     16 C13         -3.0090     0.7370     0.0020 c5         1 ATE      -0.021800
     17 C12         -2.1810     1.8860     0.5640 c6         1 ATE      -0.056400
     18 C18         -3.1900     0.9020    -1.5160 c3         1 ATE      -0.077100
     19 C17         -4.3820     0.4830     0.5800 c2         1 ATE      -0.168200
     20 C16         -4.6120    -0.8250     0.6890 c2         1 ATE      -0.180200
     21 HO1          4.8400     0.4910     1.9860 ho         1 ATE       0.399000
     22 H3           5.3100    -0.1320    -0.2440 h1         1 ATE       0.027700
     23 H21          4.3180     2.1030     0.3460 hc         1 ATE       0.041200
     24 H22          3.8560     1.4890    -1.2170 hc         1 ATE       0.041200
     25 H11          2.1620     1.4150     1.3310 hc         1 ATE       0.041700
     26 H12          1.9120     2.4460    -0.0610 hc         1 ATE       0.041700
     27 H41          3.8010    -2.1260    -0.0550 hc         1 ATE       0.047200
     28 H42          3.5310    -1.1440    -1.4730 hc         1 ATE       0.047200
     29 H5           1.9170    -1.0440     1.1100 hc         1 ATE       0.060700
     30 H61          1.5680    -3.1110    -0.1770 hc         1 ATE       0.038700
     31 H62          1.1120    -2.1850    -1.5890 hc         1 ATE       0.038700
     32 H191         2.3030     0.3510    -2.3640 hc         1 ATE       0.031367
     33 H192         0.6110    -0.0870    -2.3970 hc         1 ATE       0.031367
     34 H193         1.0800     1.5890    -2.1670 hc         1 ATE       0.031367
     35 H9           0.0640     0.2770     1.2980 hc         1 ATE       0.043700
     36 H111        -0.7100     2.1120    -0.9990 hc         1 ATE       0.037700
     37 H112        -0.1500     2.5650     0.5830 hc         1 ATE       0.037700
     38 H8          -1.0850    -0.6680    -1.3590 hc         1 ATE       0.051700
     39 H71         -0.2960    -2.2260     1.1250 hc         1 ATE       0.039200
     40 H72         -0.9180    -2.8850    -0.3760 hc         1 ATE       0.039200
     41 H14         -2.1110    -0.4820     1.4750 hc         1 ATE       0.047700
     42 H151        -3.5140    -2.0350    -0.7270 hc         1 ATE       0.049200
     43 H152        -3.2250    -2.4940     0.9420 hc         1 ATE       0.049200
     44 H121        -2.6100     2.8570     0.2960 hc         1 ATE       0.040700
     45 H122        -2.1890     1.8300     1.6580 hc         1 ATE       0.040700
     46 H181        -2.2570     1.1220    -2.0350 hc         1 ATE       0.033367
     47 H182        -3.6150     0.0060    -1.9730 hc         1 ATE       0.033367
     48 H183        -3.8750     1.7280    -1.7200 hc         1 ATE       0.033367
     49 H17         -5.1070     1.2670     0.7680 ha         1 ATE       0.135000
     50 H16         -5.5500    -1.2720     0.9950 ha         1 ATE       0.134000
@<TRIPOS>BOND
     1     1     2 1   
     2     1    21 1   
     3     2     3 1   
     4     2     5 1   
     5     2    22 1   
     6     3     4 1   
     7     3    23 1   
     8     3    24 1   
     9     4     8 1   
    10     4    25 1   
    11     4    26 1   
    12     5     6 1   
    13     5    27 1   
    14     5    28 1   
    15     6     7 1   
    16     6     8 1   
    17     6    29 1   
    18     7    13 1   
    19     7    30 1   
    20     7    31 1   
    21     8     9 1   
    22     8    10 1   
    23     9    32 1   
    24     9    33 1   
    25     9    34 1   
    26    10    11 1   
    27    10    12 1   
    28    10    35 1   
    29    11    17 1   
    30    11    36 1   
    31    11    37 1   
    32    12    13 1   
    33    12    14 1   
    34    12    38 1   
    35    13    39 1   
    36    13    40 1   
    37    14    15 1   
    38    14    16 1   
    39    14    41 1   
    40    15    20 1   
    41    15    42 1   
    42    15    43 1   
    43    16    17 1   
    44    16    18 1   
    45    16    19 1   
    46    17    44 1   
    47    17    45 1   
    48    18    46 1   
    49    18    47 1   
    50    18    48 1   
    51    19    20 2   
    52    19    49 1   
    53    20    50 1   
@<TRIPOS>SUBSTRUCTURE
     1 ATE         1 TEMP              0 ****  ****    0 ROOT
