@<TRIPOS>MOLECULE
ATE
   50    53     1     0     0
SMALL
No Charge or Current Charge


@<TRIPOS>ATOM
      1 O1           4.5120    -0.2190     1.6490 oh         1 ATE      -0.662000
      2 C3           4.3880    -0.0640     0.2300 c6         1 ATE       0.173300
      3 C2           3.8200     1.3380    -0.1080 c6         1 ATE      -0.110400
      4 C1           2.3150     1.4820     0.2600 c6         1 ATE      -0.063400
      5 C4           3.4970    -1.1890    -0.3630 c6         1 ATE      -0.063400
      6 C5           2.0010    -1.0220     0.0380 c6         1 ATE      -0.054700
      7 C6           1.1370    -2.2090    -0.4700 c6         1 ATE      -0.069400
      8 C10          1.4040     0.3770    -0.3840 c6         1 ATE      -0.030000
      9 C19          1.3960     0.5710    -1.9480 c3         1 ATE      -0.081100
     10 C9          -0.0660     0.4600     0.2060 c6         1 ATE      -0.047700
     11 C11         -0.7800     1.8510    -0.0130 c6         1 ATE      -0.069400
     12 C8          -0.9630    -0.7490    -0.2780 c6         1 ATE      -0.041700
     13 C7          -0.3060    -2.1090     0.0770 c6         1 ATE      -0.070400
     14 C14         -2.3590    -0.6040     0.3770 c5         1 ATE      -0.066700
     15 C15         -3.4940    -1.6530     0.1750 c5         1 ATE      -0.042200
     16 C13         -3.0820     0.7240    -0.0100 c5         1 ATE      -0.021800
     17 C12         -2.2400     1.9010     0.5470 c6         1 ATE      -0.056400
     18 C18         -3.3410     0.9370    -1.5380 c3         1 ATE      -0.077100
     19 C17         -4.4170     0.4700     0.6590 c2         1 ATE      -0.218200
     20 C16         -4.6700    -0.8460     0.7080 c2         1 ATE      -0.230200
     21 HO1          5.0780     0.5200     1.9610 ho         1 ATE       0.438000
     22 H3           5.3860    -0.1460    -0.2240 h1         1 ATE       0.027700
     23 H21          4.4010     2.1110     0.4140 hc         1 ATE       0.041200
     24 H22          3.9650     1.5400    -1.1770 hc         1 ATE       0.041200
     25 H11          2.2100     1.4580     1.3540 hc         1 ATE       0.041700
     26 H12          1.9820     2.4810    -0.0510 hc         1 ATE       0.041700
     27 H41          3.8690    -2.1620    -0.0140 hc         1 ATE       0.047200
     28 H42          3.6040    -1.2080    -1.4550 hc         1 ATE       0.047200
     29 H5           1.9710    -1.0730     1.1360 hc         1 ATE       0.060700
     30 H61          1.5790    -3.1590    -0.1390 hc         1 ATE       0.038700
     31 H62          1.1270    -2.2440    -1.5670 hc         1 ATE       0.038700
     32 H191         2.3850     0.4350    -2.3950 hc         1 ATE       0.031367
     33 H192         0.7310    -0.1290    -2.4620 hc         1 ATE       0.031367
     34 H193         1.0750     1.5810    -2.2260 hc         1 ATE       0.031367
     35 H9           0.0320     0.3540     1.2960 hc         1 ATE       0.043700
     36 H111        -0.7920     2.1170    -1.0760 hc         1 ATE       0.037700
     37 H112        -0.2090     2.6460     0.4830 hc         1 ATE       0.037700
     38 H8          -1.0900    -0.7130    -1.3660 hc         1 ATE       0.051700
     39 H71         -0.2920    -2.2440     1.1680 hc         1 ATE       0.039200
     40 H72         -0.9070    -2.9340    -0.3290 hc         1 ATE       0.039200
     41 H14         -2.1390    -0.5890     1.4530 hc         1 ATE       0.047700
     42 H151        -3.6340    -1.9460    -0.8720 hc         1 ATE       0.049200
     43 H152        -3.3180    -2.5620     0.7610 hc         1 ATE       0.049200
     44 H121        -2.7100     2.8620     0.2990 hc         1 ATE       0.040700
     45 H122        -2.2100     1.8470     1.6440 hc         1 ATE       0.040700
     46 H181        -2.4200     0.9780    -2.1290 hc         1 ATE       0.033367
     47 H182        -3.9560     0.1360    -1.9640 hc         1 ATE       0.033367
     48 H183        -3.8790     1.8760    -1.7110 hc         1 ATE       0.033367
     49 H17         -5.1040     1.2440     1.0080 ha         1 ATE       0.185000
     50 H16         -5.5840    -1.2770     1.1230 ha         1 ATE       0.184000
@<TRIPOS>BOND
     1     1     2 1   
     2     1    21 1   
     3     2     3 1   
     4     2     5 1   
     5     2    22 1   
     6     3     4 1   
     7     3    23 1   
     8     3    24 1   
     9     4     8 1   
    10     4    25 1   
    11     4    26 1   
    12     5     6 1   
    13     5    27 1   
    14     5    28 1   
    15     6     7 1   
    16     6     8 1   
    17     6    29 1   
    18     7    13 1   
    19     7    30 1   
    20     7    31 1   
    21     8     9 1   
    22     8    10 1   
    23     9    32 1   
    24     9    33 1   
    25     9    34 1   
    26    10    11 1   
    27    10    12 1   
    28    10    35 1   
    29    11    17 1   
    30    11    36 1   
    31    11    37 1   
    32    12    13 1   
    33    12    14 1   
    34    12    38 1   
    35    13    39 1   
    36    13    40 1   
    37    14    15 1   
    38    14    16 1   
    39    14    41 1   
    40    15    20 1   
    41    15    42 1   
    42    15    43 1   
    43    16    17 1   
    44    16    18 1   
    45    16    19 1   
    46    17    44 1   
    47    17    45 1   
    48    18    46 1   
    49    18    47 1   
    50    18    48 1   
    51    19    20 2   
    52    19    49 1   
    53    20    50 1   
@<TRIPOS>SUBSTRUCTURE
     1 ATE         1 TEMP              0 ****  ****    0 ROOT
