@<TRIPOS>MOLECULE
ATF
   45    47     1     0     0
SMALL
abcg2


@<TRIPOS>ATOM
      1 PG          22.6360    32.8920    14.7030 p5         1 ATF       1.343500
      2 O1G         22.2120    32.0140    13.5300 o          1 ATF      -0.945500
      3 O2G         23.8680    33.7460    14.4290 o          1 ATF      -0.945500
      4 O3G         21.4900    33.6260    15.3880 o          1 ATF      -0.945500
      5 PB          23.6450    32.1120    17.7450 p5         1 ATF       1.517400
      6 O1B         24.7560    33.1110    17.7410 o          1 ATF      -0.873000
      7 O2B         22.3890    32.4040    18.5030 o          1 ATF      -0.873000
      8 C3B         23.2130    31.6130    15.9920 c3         1 ATF      -0.477000
      9 F1B         24.3230    30.9290    15.4680 f          1 ATF      -0.183000
     10 F2B         22.2310    30.6130    16.1060 f          1 ATF      -0.183000
     11 PA          25.5960    30.0420    18.7610 p5         1 ATF       1.494800
     12 O1A         26.7060    30.4050    17.8330 o          1 ATF      -0.877500
     13 O2A         25.3300    28.6070    19.0900 o          1 ATF      -0.877500
     14 O3A         24.1760    30.6500    18.2730 os         1 ATF      -0.714800
     15 O5          25.7950    30.7740    20.1970 os         1 ATF      -0.646400
     16 C5          26.5830    31.9420    20.4020 c3         1 ATF       0.220600
     17 C4          27.6890    31.6470    21.3970 c5         1 ATF       0.144300
     18 O4          27.1280    31.1630    22.6420 os         1 ATF      -0.455000
     19 C3          28.6860    30.5800    20.9590 c5         1 ATF       0.108300
     20 O3          29.9470    30.8530    21.5600 oh         1 ATF      -0.749000
     21 C2          28.0890    29.2910    21.5400 c5         1 ATF       0.085300
     22 O2          29.0680    28.3180    21.8720 oh         1 ATF      -0.753000
     23 C1          27.4120    29.7850    22.8230 c5         1 ATF       0.331300
     24 N9          26.2090    29.0570    23.1750 na         1 ATF      -0.287300
     25 C8          25.2350    28.5270    22.3480 cc         1 ATF       0.504700
     26 N7          24.2410    27.9890    23.0120 nd         1 ATF      -0.590100
     27 C7          24.5590    28.1770    24.3460 ca         1 ATF      -0.065600
     28 C6          23.9020    27.8370    25.5430 ca         1 ATF       0.412900
     29 N6          22.7310    27.1780    25.5720 nv         1 ATF      -1.089900
     30 N1          24.4890    28.1790    26.7070 nb         1 ATF      -0.336000
     31 C10         25.6640    28.8180    26.6760 ca         1 ATF       0.117900
     32 N3          26.3740    29.1880    25.6120 nb         1 ATF      -0.203000
     33 C9          25.7760    28.8420    24.4660 ca         1 ATF       0.103500
     34 H5'1        27.0180    32.2880    19.4650 h1         1 ATF       0.075200
     35 H5'2        25.9340    32.7240    20.8000 h1         1 ATF       0.075200
     36 H4          28.2180    32.5780    21.6110 h1         1 ATF       0.056700
     37 H3          28.7780    30.5310    19.8710 h1         1 ATF       0.116700
     38 HO3         30.3710    29.9950    21.7140 ho         1 ATF       0.493000
     39 H2          27.3610    28.8820    20.8440 h1         1 ATF       0.128700
     40 HO2         29.2020    27.7400    21.1110 ho         1 ATF       0.511000
     41 H1          28.0920    29.6640    23.6680 h2         1 ATF       0.067700
     42 H8          25.3100    28.5670    21.2700 h5         1 ATF       0.169800
     43 HN61        22.2590    27.0430    26.4500 hn         1 ATF       0.490500
     44 HN62        22.2280    26.9980    24.7190 hn         1 ATF       0.490500
     45 H6          26.0870    29.0670    27.6440 h5         1 ATF       0.009100
@<TRIPOS>BOND
     1     1     2 1   
     2     1     3 1   
     3     1     4 1   
     4     1     8 1   
     5     5     6 1   
     6     5     7 1   
     7     5     8 1   
     8     5    14 1   
     9     8     9 1   
    10     8    10 1   
    11    11    12 1   
    12    11    13 1   
    13    11    14 1   
    14    11    15 1   
    15    15    16 1   
    16    16    17 1   
    17    16    34 1   
    18    16    35 1   
    19    17    18 1   
    20    17    19 1   
    21    17    36 1   
    22    18    23 1   
    23    19    20 1   
    24    19    21 1   
    25    19    37 1   
    26    20    38 1   
    27    21    22 1   
    28    21    23 1   
    29    21    39 1   
    30    22    40 1   
    31    23    24 1   
    32    23    41 1   
    33    24    25 1   
    34    24    33 1   
    35    25    26 2   
    36    25    42 1   
    37    26    27 1   
    38    27    28 ar  
    39    27    33 ar  
    40    28    29 1   
    41    28    30 ar  
    42    29    43 1   
    43    29    44 1   
    44    30    31 ar  
    45    31    32 ar  
    46    31    45 1   
    47    32    33 ar  
@<TRIPOS>SUBSTRUCTURE
     1 ATF         1 TEMP              0 ****  ****    0 ROOT
