@<TRIPOS>MOLECULE
ATF
   45    47     1     0     0
SMALL
No Charge or Current Charge


@<TRIPOS>ATOM
      1 PG          24.2460    32.4490    14.5030 p5         1 ATF       1.343500
      2 O1G         23.8790    31.9110    13.1580 o          1 ATF      -0.945500
      3 O2G         25.7350    32.4270    14.5840 o          1 ATF      -0.945500
      4 O3G         23.7180    33.8400    14.6010 o          1 ATF      -0.945500
      5 PB          23.7200    32.3090    17.2740 p5         1 ATF       1.517400
      6 O1B         24.9500    33.1440    17.4320 o          1 ATF      -0.873000
      7 O2B         22.5040    33.1600    17.4920 o          1 ATF      -0.873000
      8 C3B         23.4890    31.3200    15.7290 c3         1 ATF      -0.477000
      9 F1B         24.1080    30.1050    15.7420 f          1 ATF      -0.183000
     10 F2B         22.1680    31.0880    15.4720 f          1 ATF      -0.183000
     11 PA          24.8770    30.3440    18.8140 p5         1 ATF       1.494800
     12 O1A         26.1330    30.5200    18.0360 o          1 ATF      -0.877500
     13 O2A         24.5320    28.8980    18.9340 o          1 ATF      -0.877500
     14 O3A         23.6130    31.1620    18.3600 os         1 ATF      -0.714800
     15 O5          25.0230    30.9430    20.3020 os         1 ATF      -0.646400
     16 C5          25.7570    32.1600    20.5420 c3         1 ATF       0.220600
     17 C4          27.0240    31.8970    21.4200 c5         1 ATF       0.144300
     18 O4          26.6440    31.3130    22.6960 os         1 ATF      -0.455000
     19 C3          28.1080    30.9340    20.8210 c5         1 ATF       0.108300
     20 O3          29.4220    31.1720    21.3550 oh         1 ATF      -0.749000
     21 C2          27.5930    29.5530    21.3200 c5         1 ATF       0.085300
     22 O2          28.6540    28.5650    21.3150 oh         1 ATF      -0.753000
     23 C1          27.0900    29.9390    22.7570 c5         1 ATF       0.331300
     24 N9          26.0380    29.1230    23.3590 na         1 ATF      -0.287300
     25 C8          24.9180    28.6050    22.6960 cc         1 ATF       0.504700
     26 N7          24.1620    27.8530    23.5270 nd         1 ATF      -0.590100
     27 C7          24.8540    27.9190    24.7410 ca         1 ATF      -0.065600
     28 C6          24.5440    27.3290    25.9860 ca         1 ATF       0.412900
     29 N6          23.4440    26.5540    26.1880 nv         1 ATF      -1.089900
     30 N1          25.3310    27.5160    27.0580 nb         1 ATF      -0.336000
     31 C10         26.4270    28.2900    26.8640 ca         1 ATF       0.117900
     32 N3          26.8020    28.8910    25.7100 nb         1 ATF      -0.203000
     33 C9          25.9880    28.6880    24.6530 ca         1 ATF       0.103500
     34 H5'1        26.0890    32.6310    19.6090 h1         1 ATF       0.075200
     35 H5'2        25.1210    32.8880    21.0620 h1         1 ATF       0.075200
     36 H4          27.4720    32.8800    21.6170 h1         1 ATF       0.056700
     37 H3          28.1200    30.9840    19.7220 h1         1 ATF       0.116700
     38 HO3         29.7610    30.2590    21.5370 ho         1 ATF       0.493000
     39 H2          26.7510    29.2140    20.7040 h1         1 ATF       0.128700
     40 HO2         28.6210    28.0920    20.4470 ho         1 ATF       0.511000
     41 H1          27.9410    29.8870    23.4480 h2         1 ATF       0.067700
     42 H8          24.7080    28.8070    21.6510 h5         1 ATF       0.169800
     43 HN61        23.1340    26.4040    27.1440 hn         1 ATF       0.490500
     44 HN62        22.7250    26.5710    25.4670 hn         1 ATF       0.490500
     45 H6          27.0720    28.4460    27.7270 h5         1 ATF       0.009100
@<TRIPOS>BOND
     1     1     2 1   
     2     1     3 1   
     3     1     4 1   
     4     1     8 1   
     5     5     6 1   
     6     5     7 1   
     7     5     8 1   
     8     5    14 1   
     9     8     9 1   
    10     8    10 1   
    11    11    12 1   
    12    11    13 1   
    13    11    14 1   
    14    11    15 1   
    15    15    16 1   
    16    16    17 1   
    17    16    34 1   
    18    16    35 1   
    19    17    18 1   
    20    17    19 1   
    21    17    36 1   
    22    18    23 1   
    23    19    20 1   
    24    19    21 1   
    25    19    37 1   
    26    20    38 1   
    27    21    22 1   
    28    21    23 1   
    29    21    39 1   
    30    22    40 1   
    31    23    24 1   
    32    23    41 1   
    33    24    25 1   
    34    24    33 1   
    35    25    26 2   
    36    25    42 1   
    37    26    27 1   
    38    27    28 ar  
    39    27    33 ar  
    40    28    29 1   
    41    28    30 ar  
    42    29    43 1   
    43    29    44 1   
    44    30    31 ar  
    45    31    32 ar  
    46    31    45 1   
    47    32    33 ar  
@<TRIPOS>SUBSTRUCTURE
     1 ATF         1 TEMP              0 ****  ****    0 ROOT
