@<TRIPOS>MOLECULE
ATH
   16    15     1     0     0
SMALL
abcg2


@<TRIPOS>ATOM
      1 C1          -2.5540     0.3710    -0.3780 c          1 ATH       0.713200
      2 C2          -1.2530     1.0670    -0.0520 ce         1 ATH      -0.305200
      3 C3          -0.0060     0.5930    -0.1080 cf         1 ATH      -0.154400
      4 C4           0.3900    -0.7870    -0.5700 c3         1 ATH       0.088500
      5 C5           1.0510    -1.5670     0.5880 c          1 ATH       0.715000
      6 C6           1.1600     1.4910     0.2850 c          1 ATH       0.710200
      7 O1          -2.5870    -0.4820    -1.2880 o          1 ATH      -0.792500
      8 O2          -3.5280     0.7410     0.3150 o          1 ATH      -0.792500
      9 O3           2.0020    -2.3220     0.3150 o          1 ATH      -0.780000
     10 O4           0.5300    -1.4040     1.7120 o          1 ATH      -0.780000
     11 O5           0.9350     2.5380     0.9160 o          1 ATH      -0.782500
     12 O6           2.2980     1.0970    -0.0850 o          1 ATH      -0.782500
     13 OH           1.1980    -0.7090    -1.7270 oh         1 ATH      -0.728000
     14 H2          -1.3710     2.0740     0.3410 ha         1 ATH       0.138000
     15 H4          -0.5130    -1.3330    -0.8540 h1         1 ATH       0.064700
     16 HH           1.9370    -0.1530    -1.4210 ho         1 ATH       0.466000
@<TRIPOS>BOND
     1     1     2 1   
     2     1     7 1   
     3     1     8 1   
     4     2     3 2   
     5     2    14 1   
     6     3     4 1   
     7     3     6 1   
     8     4     5 1   
     9     4    13 1   
    10     4    15 1   
    11     5     9 1   
    12     5    10 1   
    13     6    11 1   
    14     6    12 1   
    15    13    16 1   
@<TRIPOS>SUBSTRUCTURE
     1 ATH         1 TEMP              0 ****  ****    0 ROOT
