@<TRIPOS>MOLECULE
ATH
   16    15     1     0     0
SMALL
No Charge or Current Charge


@<TRIPOS>ATOM
      1 C1          -2.5260     0.1800    -0.1970 c          1 ATH       0.713200
      2 C2          -1.2810     0.9880     0.0120 ce         1 ATH      -0.305200
      3 C3           0.0580     0.6650    -0.1530 cf         1 ATH      -0.154400
      4 C4           0.5440    -0.7040    -0.6850 c3         1 ATH       0.088500
      5 C5           0.7750    -1.7680     0.4710 c          1 ATH       0.715000
      6 C6           1.1340     1.6960     0.1930 c          1 ATH       0.710200
      7 O1          -2.4650    -0.9970    -0.5030 o          1 ATH      -0.792500
      8 O2          -3.5870     0.7510    -0.0080 o          1 ATH      -0.792500
      9 O3           0.6820    -2.9600     0.1960 o          1 ATH      -0.780000
     10 O4           1.1080    -1.3860     1.5880 o          1 ATH      -0.780000
     11 O5           0.7950     2.7860     0.6340 o          1 ATH      -0.782500
     12 O6           2.3150     1.4310    -0.0010 o          1 ATH      -0.782500
     13 OH           1.6990    -0.5350    -1.5470 oh         1 ATH      -0.728000
     14 H2          -1.5100     1.9900     0.3660 ha         1 ATH       0.138000
     15 H4          -0.2630    -1.1060    -1.3050 h1         1 ATH       0.064700
     16 HH           2.2100     0.1840    -1.0730 ho         1 ATH       0.466000
@<TRIPOS>BOND
     1     1     2 1   
     2     1     7 1   
     3     1     8 1   
     4     2     3 2   
     5     2    14 1   
     6     3     4 1   
     7     3     6 1   
     8     4     5 1   
     9     4    13 1   
    10     4    15 1   
    11     5     9 1   
    12     5    10 1   
    13     6    11 1   
    14     6    12 1   
    15    13    16 1   
@<TRIPOS>SUBSTRUCTURE
     1 ATH         1 TEMP              0 ****  ****    0 ROOT
