@<TRIPOS>MOLECULE
ATK
   51    55     1     0     0
SMALL
bcc


@<TRIPOS>ATOM
      1 N1           2.1060    -3.8680     0.5220 nb         1 ATK      -0.611000
      2 N4           0.5570    -1.6130     0.3440 nb         1 ATK      -0.745000
      3 C11          0.8030    -3.9710     0.3470 ca         1 ATK       0.238900
      4 C12          0.0200    -2.8140     0.2610 ca         1 ATK       0.469500
      5 N13         -1.3500    -2.8880     0.0850 na         1 ATK       0.050100
      6 C14          1.8640    -1.5240     0.5200 ca         1 ATK       0.478500
      7 C15          2.6570    -2.6690     0.6140 ca         1 ATK       0.229900
      8 N15          2.3970    -0.2480     0.6160 na         1 ATK      -0.106900
      9 C17         -2.2600    -1.8870    -0.1820 ca         1 ATK       0.051800
     10 C18         -3.5070    -2.5300    -0.2430 ca         1 ATK      -0.294900
     11 N20         -1.9550    -4.1010     0.1830 nc         1 ATK      -0.526100
     12 C28         -3.2240    -3.9030    -0.0050 cd         1 ATK       0.386800
     13 C35          3.7390     0.0760     0.6730 cc         1 ATK      -0.203300
     14 C36          3.8620     1.4300     0.7740 cd         1 ATK      -0.022300
     15 C37          2.5330     1.9580     0.7840 cd         1 ATK      -0.147000
     16 C38          1.6640     0.9160     0.6890 cc         1 ATK      -0.165300
     17 C44         -4.6560    -1.7820    -0.5040 ca         1 ATK      -0.026000
     18 N44         -3.1690     1.5570    -0.9060 nu         1 ATK      -0.769600
     19 C45         -4.5430    -0.4270    -0.7040 ca         1 ATK      -0.229000
     20 C46         -3.2790     0.2220    -0.6570 ca         1 ATK       0.226600
     21 C47         -2.1240    -0.5200    -0.3860 ca         1 ATK      -0.224000
     22 C48         -4.2720     2.4980    -0.8680 c5         1 ATK       0.233500
     23 C57         -3.7440     3.9010    -1.1580 c5         1 ATK      -0.102900
     24 C58         -3.1730     4.4010     0.1840 c5         1 ATK      -0.082900
     25 C59         -3.8280     3.5190     1.2710 c5         1 ATK      -0.082900
     26 C60         -4.8660     2.6680     0.5350 c5         1 ATK      -0.102900
     27 O61          4.6060     3.2000    -1.2380 o          1 ATK      -0.834300
     28 O63          6.5260     3.7440    -0.2460 o          1 ATK      -0.834300
     29 C66          5.1290     2.2030     0.8780 c3         1 ATK      -0.166100
     30 C68          5.4410     3.1330    -0.3190 c          1 ATK       0.934600
     31 H11          0.3720    -4.9600     0.2750 h4         1 ATK       0.047100
     32 H15          3.7270    -2.6250     0.7650 h4         1 ATK       0.043100
     33 H28         -3.9180    -4.7300     0.0320 h4         1 ATK       0.041800
     34 H35          4.5080    -0.6760     0.6280 h4         1 ATK       0.156000
     35 H37          2.2580     2.9980     0.8630 ha         1 ATK       0.155000
     36 H38          0.5880     0.9000     0.6810 h4         1 ATK       0.158000
     37 H44         -5.6270    -2.2570    -0.5540 ha         1 ATK       0.126000
     38 HN44        -2.2490     1.9480    -0.7800 hn         1 ATK       0.434800
     39 H45         -5.4340     0.1490    -0.9110 ha         1 ATK       0.128000
     40 H47         -1.1610    -0.0370    -0.3490 ha         1 ATK       0.171000
     41 H48         -5.0270     2.2010    -1.6020 h1         1 ATK       0.059700
     42 H57         -3.0170     3.9170    -1.9730 hc         1 ATK       0.051700
     43 H57A        -4.5840     4.5240    -1.4690 hc         1 ATK       0.051700
     44 H58         -2.0850     4.3120     0.2100 hc         1 ATK       0.046950
     45 H58A        -3.3970     5.4580     0.3290 hc         1 ATK       0.046950
     46 H59         -3.0830     2.8760     1.7440 hc         1 ATK       0.046950
     47 H59A        -4.2790     4.1090     2.0690 hc         1 ATK       0.046950
     48 H60         -5.8140     3.2060     0.4480 hc         1 ATK       0.051700
     49 H60A        -5.0790     1.7210     1.0330 hc         1 ATK       0.051700
     50 H66          5.1130     2.8220     1.7820 hc         1 ATK       0.031700
     51 H66A         5.9720     1.5180     1.0120 hc         1 ATK       0.031700
@<TRIPOS>BOND
     1     1     3 ar  
     2     1     7 ar  
     3     2     4 ar  
     4     2     6 ar  
     5     3     4 ar  
     6     3    31 1   
     7     4     5 1   
     8     5     9 1   
     9     5    11 1   
    10     6     7 ar  
    11     6     8 1   
    12     7    32 1   
    13     8    13 1   
    14     8    16 1   
    15     9    10 ar  
    16     9    21 ar  
    17    10    12 1   
    18    10    17 ar  
    19    11    12 2   
    20    12    33 1   
    21    13    14 2   
    22    13    34 1   
    23    14    15 1   
    24    14    29 1   
    25    15    16 2   
    26    15    35 1   
    27    16    36 1   
    28    17    19 ar  
    29    17    37 1   
    30    18    20 1   
    31    18    22 1   
    32    18    38 1   
    33    19    20 ar  
    34    19    39 1   
    35    20    21 ar  
    36    21    40 1   
    37    22    23 1   
    38    22    26 1   
    39    22    41 1   
    40    23    24 1   
    41    23    42 1   
    42    23    43 1   
    43    24    25 1   
    44    24    44 1   
    45    24    45 1   
    46    25    26 1   
    47    25    46 1   
    48    25    47 1   
    49    26    48 1   
    50    26    49 1   
    51    27    30 1   
    52    28    30 1   
    53    29    30 1   
    54    29    50 1   
    55    29    51 1   
@<TRIPOS>SUBSTRUCTURE
     1 ATK         1 TEMP              0 ****  ****    0 ROOT
