@<TRIPOS>MOLECULE
ATK
   51    55     1     0     0
SMALL
No Charge or Current Charge


@<TRIPOS>ATOM
      1 N1           1.9340    -3.6780    -0.1330 nb         1 ATK      -0.611000
      2 N4           0.4170    -1.4890     0.9210 nb         1 ATK      -0.745000
      3 C11          0.5740    -3.6950    -0.0700 ca         1 ATK       0.238900
      4 C12         -0.2010    -2.6170     0.4520 ca         1 ATK       0.469500
      5 N13         -1.5950    -2.7870     0.4470 na         1 ATK       0.050100
      6 C14          1.7840    -1.4370     0.8700 ca         1 ATK       0.478500
      7 C15          2.5190    -2.5440     0.3410 ca         1 ATK       0.229900
      8 N15          2.5200    -0.3250     1.3200 na         1 ATK      -0.005500
      9 C17         -2.5250    -1.9150    -0.0840 ca         1 ATK       0.051800
     10 C18         -3.7500    -2.4480     0.1590 ca         1 ATK      -0.294900
     11 N20         -2.1990    -3.9040     1.0500 nc         1 ATK      -0.526100
     12 C28         -3.5140    -3.6900     0.8680 cd         1 ATK       0.386800
     13 C35          3.6890     0.1440     0.7170 cc         1 ATK      -0.236000
     14 C36          4.0560     1.2410     1.4550 cd         1 ATK      -0.022300
     15 C37          3.0980     1.4230     2.4840 cd         1 ATK      -0.129000
     16 C38          2.1300     0.4580     2.4030 cc         1 ATK      -0.198000
     17 C44         -4.9330    -1.8250    -0.2520 ca         1 ATK      -0.008000
     18 N44         -3.4150     1.1760    -1.8680 nu         1 ATK      -0.963200
     19 C45         -4.8100    -0.5980    -0.9370 ca         1 ATK      -0.211000
     20 C46         -3.5350    -0.0340    -1.1870 ca         1 ATK       0.365000
     21 C47         -2.3710    -0.7030    -0.7670 ca         1 ATK      -0.206000
     22 C48         -4.0290     2.2870    -1.0990 c5         1 ATK       0.233500
     23 C57         -3.9360     3.5120    -2.0360 c5         1 ATK      -0.102900
     24 C58         -4.1170     4.6710    -1.0140 c5         1 ATK      -0.082900
     25 C59         -3.4480     4.1480     0.3030 c5         1 ATK      -0.082900
     26 C60         -2.9870     2.6970    -0.0290 c5         1 ATK      -0.102900
     27 O61          4.5680     4.3780     1.3210 o          1 ATK      -0.729000
     28 O63          4.8130     3.5140    -0.6360 o          1 ATK      -0.729000
     29 C66          5.2660     2.1110     1.2240 c3         1 ATK      -0.166100
     30 C68          4.8870     3.4570     0.5830 c          1 ATK       0.724000
     31 H11          0.0890    -4.5930    -0.4490 h4         1 ATK       0.047100
     32 H15          3.6070    -2.5260     0.3060 h4         1 ATK       0.043100
     33 H28         -4.2230    -4.4170     1.2450 h4         1 ATK       0.041800
     34 H35          4.1460    -0.3110    -0.1540 h4         1 ATK       0.138000
     35 H37          3.1240     2.2160     3.2250 ha         1 ATK       0.137000
     36 H38          1.2430     0.2680     2.9960 h4         1 ATK       0.140000
     37 H44         -5.9080    -2.2680    -0.0550 ha         1 ATK       0.108000
     38 HN44        -2.4810     1.3310    -2.2460 hn         1 ATK       0.490000
     39 H45         -5.7040    -0.0880    -1.2820 ha         1 ATK       0.110000
     40 H47         -1.3870    -0.2850    -0.9550 ha         1 ATK       0.153000
     41 H48         -5.0430     2.1120    -0.7080 h1         1 ATK       0.059700
     42 H57         -2.9660     3.5890    -2.5440 hc         1 ATK       0.051700
     43 H57A        -4.7130     3.5100    -2.8090 hc         1 ATK       0.051700
     44 H58         -3.6590     5.6010    -1.3700 hc         1 ATK       0.046950
     45 H58A        -5.1790     4.8850    -0.8480 hc         1 ATK       0.046950
     46 H59         -2.6050     4.7750     0.6160 hc         1 ATK       0.046950
     47 H59A        -4.1690     4.1530     1.1300 hc         1 ATK       0.046950
     48 H60         -3.0060     2.0430     0.8500 hc         1 ATK       0.051700
     49 H60A        -1.9600     2.6960    -0.4160 hc         1 ATK       0.051700
     50 H66          5.7120     2.2840     2.2110 hc         1 ATK       0.031700
     51 H66A         5.9270     1.5540     0.5490 hc         1 ATK       0.031700
@<TRIPOS>BOND
     1     1     3 ar  
     2     1     7 ar  
     3     2     4 ar  
     4     2     6 ar  
     5     3     4 ar  
     6     3    31 1   
     7     4     5 1   
     8     5     9 1   
     9     5    11 1   
    10     6     7 ar  
    11     6     8 1   
    12     7    32 1   
    13     8    13 1   
    14     8    16 1   
    15     9    10 ar  
    16     9    21 ar  
    17    10    12 1   
    18    10    17 ar  
    19    11    12 2   
    20    12    33 1   
    21    13    14 2   
    22    13    34 1   
    23    14    15 1   
    24    14    29 1   
    25    15    16 2   
    26    15    35 1   
    27    16    36 1   
    28    17    19 ar  
    29    17    37 1   
    30    18    20 1   
    31    18    22 1   
    32    18    38 1   
    33    19    20 ar  
    34    19    39 1   
    35    20    21 ar  
    36    21    40 1   
    37    22    23 1   
    38    22    26 1   
    39    22    41 1   
    40    23    24 1   
    41    23    42 1   
    42    23    43 1   
    43    24    25 1   
    44    24    44 1   
    45    24    45 1   
    46    25    26 1   
    47    25    46 1   
    48    25    47 1   
    49    26    48 1   
    50    26    49 1   
    51    27    30 1   
    52    28    30 1   
    53    29    30 1   
    54    29    50 1   
    55    29    51 1   
@<TRIPOS>SUBSTRUCTURE
     1 ATK         1 TEMP              0 ****  ****    0 ROOT
