@<TRIPOS>MOLECULE
ATN
   66    68     1     0     0
SMALL
abcg2


@<TRIPOS>ATOM
      1 CA          -3.3500     0.5740    -0.5160 c3         1 ATN       0.139500
      2 C1          -3.2910     2.1130    -0.3900 c3         1 ATN       0.111300
      3 N           -3.0020     0.1990    -1.8720 n8         1 ATN      -0.992200
      4 O1          -4.0080     2.7410    -1.4130 oh         1 ATN      -0.653000
      5 C           -1.8350     2.5620    -0.4160 c          1 ATN       0.591100
      6 CB          -4.7190     0.0570    -0.0370 c3         1 ATN      -0.069100
      7 CG          -4.8000    -1.4410    -0.0910 ca         1 ATN      -0.085300
      8 CD1         -4.2630    -2.2110     0.9400 ca         1 ATN      -0.109500
      9 CE1         -4.2820    -3.5980     0.8820 ca         1 ATN      -0.107000
     10 CZ          -4.8420    -4.2410    -0.2160 ca         1 ATN      -0.110000
     11 CE2         -5.3810    -3.4860    -1.2480 ca         1 ATN      -0.107000
     12 CD2         -5.3580    -2.0990    -1.1850 ca         1 ATN      -0.109500
     13 O           -1.3300     2.9700    -1.4550 o          1 ATN      -0.598100
     14 N1          -1.1440     2.4670     0.7270 n          1 ATN      -0.397800
     15 CA1          0.2770     2.7350     0.7400 c5         1 ATN       0.035700
     16 C2           1.0250     1.6140     0.0280 c          1 ATN       0.606100
     17 O2           0.5340     0.5030    -0.1080 o          1 ATN      -0.596100
     18 CB1          0.6280     2.7400     2.2370 c5         1 ATN      -0.086400
     19 CG1         -0.3980     1.7900     2.8430 c5         1 ATN      -0.093400
     20 CD          -1.6590     2.0560     2.0310 c5         1 ATN       0.108000
     21 N2           2.2690     1.8990    -0.3910 n          1 ATN      -0.396800
     22 CA2          3.1080     0.8350    -0.8990 c5         1 ATN       0.032700
     23 C3           3.3840    -0.1820     0.2060 c          1 ATN       0.598100
     24 O3           3.4860     0.1530     1.3750 o          1 ATN      -0.616100
     25 CB2          4.3900     1.5670    -1.3170 c5         1 ATN      -0.081400
     26 CG2          4.4510     2.7570    -0.3660 c5         1 ATN      -0.095400
     27 CD3          2.9890     3.1590    -0.2130 c5         1 ATN       0.110000
     28 N3           3.5680    -1.4370    -0.2280 ns         1 ATN      -0.489900
     29 CA3          3.8450    -2.5390     0.6590 c3         1 ATN       0.031700
     30 C4           4.5790    -3.6190    -0.1290 c          1 ATN       0.595100
     31 O4           4.4250    -3.7420    -1.3360 o          1 ATN      -0.610100
     32 CB3          2.5630    -3.1250     1.2580 c3         1 ATN      -0.110100
     33 N4           5.3460    -4.4260     0.6090 nt         1 ATN      -0.602000
     34 HA          -2.5810     0.1450     0.1340 h1         1 ATN       0.073700
     35 HC1         -3.7560     2.4120     0.5550 h1         1 ATN       0.071700
     36 HN1         -2.7560    -0.7810    -1.9070 hn         1 ATN       0.403000
     37 HN2         -3.8000     0.3090    -2.4860 hn         1 ATN       0.403000
     38 HO1         -3.4360     2.7490    -2.1920 ho         1 ATN       0.476000
     39 HB1         -5.5050     0.5030    -0.6520 hc         1 ATN       0.056200
     40 HB2         -4.8890     0.3970     0.9890 hc         1 ATN       0.056200
     41 HD1         -3.8260    -1.7190     1.8010 ha         1 ATN       0.110000
     42 HE1         -3.8630    -4.1760     1.6950 ha         1 ATN       0.112500
     43 HZ          -4.8610    -5.3220    -0.2630 ha         1 ATN       0.113000
     44 HE2         -5.8220    -3.9770    -2.1060 ha         1 ATN       0.112500
     45 HD2         -5.7900    -1.5210    -1.9930 ha         1 ATN       0.110000
     46 HA1          0.4930     3.6990     0.2750 h1         1 ATN       0.084700
     47 HB11         1.6540     2.4270     2.4240 hc         1 ATN       0.063700
     48 HB12         0.5050     3.7490     2.6340 hc         1 ATN       0.063700
     49 HG11        -0.0820     0.7540     2.7170 hc         1 ATN       0.062700
     50 HG12        -0.5570     1.9640     3.9060 hc         1 ATN       0.062700
     51 HD1A        -2.2560     2.8570     2.4750 h1         1 ATN       0.045200
     52 HD2A        -2.2870     1.1690     1.9670 h1         1 ATN       0.045200
     53 HA2          2.6420     0.3420    -1.7550 h1         1 ATN       0.085700
     54 HB21         5.2710     0.9270    -1.2750 hc         1 ATN       0.060200
     55 HB22         4.2830     1.9090    -2.3480 hc         1 ATN       0.060200
     56 HG21         4.8640     2.4590     0.5980 hc         1 ATN       0.061200
     57 HG22         5.0580     3.5760    -0.7510 hc         1 ATN       0.061200
     58 HD31         2.6960     3.8790    -0.9820 h1         1 ATN       0.049200
     59 HD32         2.7900     3.6060     0.7600 h1         1 ATN       0.049200
     60 HN3          3.3910    -1.6610    -1.1960 hn         1 ATN       0.341500
     61 HA3          4.4830    -2.1810     1.4680 h1         1 ATN       0.077700
     62 HB31         2.7860    -3.9180     1.9710 hc         1 ATN       0.051033
     63 HB32         2.0100    -2.3470     1.7820 hc         1 ATN       0.051033
     64 HB33         1.9220    -3.5340     0.4760 hc         1 ATN       0.051033
     65 HN41         5.4780    -4.2800     1.5950 hn         1 ATN       0.317500
     66 HN42         5.8140    -5.2130     0.1890 hn         1 ATN       0.317500
@<TRIPOS>BOND
     1     1     2 1   
     2     1     3 1   
     3     1     6 1   
     4     1    34 1   
     5     2     4 1   
     6     2     5 1   
     7     2    35 1   
     8     3    36 1   
     9     3    37 1   
    10     4    38 1   
    11     5    13 2   
    12     5    14 1   
    13     6     7 1   
    14     6    39 1   
    15     6    40 1   
    16     7     8 ar  
    17     7    12 ar  
    18     8     9 ar  
    19     8    41 1   
    20     9    10 ar  
    21     9    42 1   
    22    10    11 ar  
    23    10    43 1   
    24    11    12 ar  
    25    11    44 1   
    26    12    45 1   
    27    14    15 1   
    28    14    20 1   
    29    15    16 1   
    30    15    18 1   
    31    15    46 1   
    32    16    17 2   
    33    16    21 1   
    34    18    19 1   
    35    18    47 1   
    36    18    48 1   
    37    19    20 1   
    38    19    49 1   
    39    19    50 1   
    40    20    51 1   
    41    20    52 1   
    42    21    22 1   
    43    21    27 1   
    44    22    23 1   
    45    22    25 1   
    46    22    53 1   
    47    23    24 2   
    48    23    28 1   
    49    25    26 1   
    50    25    54 1   
    51    25    55 1   
    52    26    27 1   
    53    26    56 1   
    54    26    57 1   
    55    27    58 1   
    56    27    59 1   
    57    28    29 1   
    58    28    60 1   
    59    29    30 1   
    60    29    32 1   
    61    29    61 1   
    62    30    31 2   
    63    30    33 1   
    64    32    62 1   
    65    32    63 1   
    66    32    64 1   
    67    33    65 1   
    68    33    66 1   
@<TRIPOS>SUBSTRUCTURE
     1 ATN         1 TEMP              0 ****  ****    0 ROOT
