@<TRIPOS>MOLECULE
ATN
   66    68     1     0     0
SMALL
No Charge or Current Charge


@<TRIPOS>ATOM
      1 CA          -3.8260     0.7980    -0.8320 c3         1 ATN       0.139500
      2 C1          -3.5580     2.3340    -0.7920 c3         1 ATN       0.111300
      3 N           -4.0670     0.3500    -2.2370 n8         1 ATN      -0.992200
      4 O1          -4.2450     2.8790    -1.9400 oh         1 ATN      -0.653000
      5 C           -2.0180     2.6370    -0.7660 c          1 ATN       0.591100
      6 CB          -5.0350     0.3860     0.0440 c3         1 ATN      -0.069100
      7 CG          -5.2640    -1.1230     0.0780 ca         1 ATN      -0.085300
      8 CD1         -4.3650    -1.9590     0.7700 ca         1 ATN      -0.109500
      9 CE1         -4.5700    -3.3490     0.8030 ca         1 ATN      -0.107000
     10 CZ          -5.6770    -3.9120     0.1460 ca         1 ATN      -0.110000
     11 CE2         -6.5790    -3.0840    -0.5430 ca         1 ATN      -0.107000
     12 CD2         -6.3730    -1.6940    -0.5770 ca         1 ATN      -0.109500
     13 O           -1.4190     3.0550    -1.7550 o          1 ATN      -0.598100
     14 N1          -1.3040     2.4070     0.4340 n          1 ATN      -0.397800
     15 CA1          0.1710     2.6040     0.5260 c5         1 ATN       0.035700
     16 C2           1.0050     1.4330    -0.1070 c          1 ATN       0.606100
     17 O2           0.5480     0.3660    -0.5040 o          1 ATN      -0.596100
     18 CB1          0.3810     2.6470     2.0740 c5         1 ATN      -0.086400
     19 CG1         -0.7060     1.6670     2.5810 c5         1 ATN      -0.093400
     20 CD          -1.9330     2.0860     1.7350 c5         1 ATN       0.108000
     21 N2           2.3980     1.6920    -0.1370 n          1 ATN      -0.396800
     22 CA2          3.3650     0.6450    -0.5790 c5         1 ATN       0.032700
     23 C3           3.6870    -0.4140     0.5250 c          1 ATN       0.598100
     24 O3           3.4030    -0.3600     1.7160 o          1 ATN      -0.616100
     25 CB2          4.6360     1.4960    -0.8920 c5         1 ATN      -0.081400
     26 CG2          4.5190     2.6580     0.1230 c5         1 ATN      -0.095400
     27 CD3          3.0230     3.0300    -0.0040 c5         1 ATN       0.110000
     28 N3           4.3420    -1.4870    -0.0450 ns         1 ATN      -0.489900
     29 CA3          4.7890    -2.6950     0.6820 c3         1 ATN       0.031700
     30 C4           5.9140    -3.4240    -0.1150 c          1 ATN       0.595100
     31 O4           6.3100    -3.0610    -1.2120 o          1 ATN      -0.610100
     32 CB3          3.5930    -3.6230     1.0070 c3         1 ATN      -0.110100
     33 N4           6.4550    -4.5210     0.4620 nt         1 ATN      -0.602000
     34 HA          -2.9460     0.2640    -0.4430 h1         1 ATN       0.073700
     35 HC1         -3.9730     2.7570     0.1320 h1         1 ATN       0.071700
     36 HN1         -3.1720     0.0670    -2.6600 hn         1 ATN       0.403000
     37 HN2         -4.5860    -0.5370    -2.2000 hn         1 ATN       0.403000
     38 HO1         -4.3920     2.0390    -2.4590 ho         1 ATN       0.476000
     39 HB1         -5.9340     0.9020    -0.3160 hc         1 ATN       0.056200
     40 HB2         -4.8760     0.7450     1.0680 hc         1 ATN       0.056200
     41 HD1         -3.5060    -1.5320     1.2830 ha         1 ATN       0.110000
     42 HE1         -3.8720    -3.9890     1.3380 ha         1 ATN       0.112500
     43 HZ          -5.8360    -4.9880     0.1720 ha         1 ATN       0.113000
     44 HE2         -7.4370    -3.5190    -1.0520 ha         1 ATN       0.112500
     45 HD2         -7.0780    -1.0620    -1.1130 ha         1 ATN       0.110000
     46 HA1          0.4720     3.5460     0.0510 h1         1 ATN       0.084700
     47 HB11         1.3880     2.3520     2.3910 hc         1 ATN       0.063700
     48 HB12         0.2050     3.6580     2.4620 hc         1 ATN       0.063700
     49 HG11        -0.4260     0.6250     2.3820 hc         1 ATN       0.062700
     50 HG12        -0.8910     1.7550     3.6570 hc         1 ATN       0.062700
     51 HD1A        -2.4290     2.9710     2.1540 h1         1 ATN       0.045200
     52 HD2A        -2.6630     1.2700     1.6690 h1         1 ATN       0.045200
     53 HA2          3.0090     0.1150    -1.4720 h1         1 ATN       0.085700
     54 HB21         5.5730     0.9360    -0.7890 hc         1 ATN       0.060200
     55 HB22         4.6040     1.8760    -1.9200 hc         1 ATN       0.060200
     56 HG21         4.7600     2.3280     1.1400 hc         1 ATN       0.061200
     57 HG22         5.1810     3.4990    -0.1140 hc         1 ATN       0.061200
     58 HD31         2.8320     3.6370    -0.9010 h1         1 ATN       0.049200
     59 HD32         2.6790     3.5890     0.8750 h1         1 ATN       0.049200
     60 HN3          4.5530    -1.4250    -1.0360 hn         1 ATN       0.341500
     61 HA3          5.2430    -2.3750     1.6300 h1         1 ATN       0.077700
     62 HB31         3.9130    -4.4860     1.6030 hc         1 ATN       0.051033
     63 HB32         2.8280    -3.0870     1.5820 hc         1 ATN       0.051033
     64 HB33         3.1300    -3.9940     0.0850 hc         1 ATN       0.051033
     65 HN41         6.1360    -4.8300     1.3690 hn         1 ATN       0.317500
     66 HN42         7.1840    -5.0240    -0.0230 hn         1 ATN       0.317500
@<TRIPOS>BOND
     1     1     2 1   
     2     1     3 1   
     3     1     6 1   
     4     1    34 1   
     5     2     4 1   
     6     2     5 1   
     7     2    35 1   
     8     3    36 1   
     9     3    37 1   
    10     4    38 1   
    11     5    13 2   
    12     5    14 1   
    13     6     7 1   
    14     6    39 1   
    15     6    40 1   
    16     7     8 ar  
    17     7    12 ar  
    18     8     9 ar  
    19     8    41 1   
    20     9    10 ar  
    21     9    42 1   
    22    10    11 ar  
    23    10    43 1   
    24    11    12 ar  
    25    11    44 1   
    26    12    45 1   
    27    14    15 1   
    28    14    20 1   
    29    15    16 1   
    30    15    18 1   
    31    15    46 1   
    32    16    17 2   
    33    16    21 1   
    34    18    19 1   
    35    18    47 1   
    36    18    48 1   
    37    19    20 1   
    38    19    49 1   
    39    19    50 1   
    40    20    51 1   
    41    20    52 1   
    42    21    22 1   
    43    21    27 1   
    44    22    23 1   
    45    22    25 1   
    46    22    53 1   
    47    23    24 2   
    48    23    28 1   
    49    25    26 1   
    50    25    54 1   
    51    25    55 1   
    52    26    27 1   
    53    26    56 1   
    54    26    57 1   
    55    27    58 1   
    56    27    59 1   
    57    28    29 1   
    58    28    60 1   
    59    29    30 1   
    60    29    32 1   
    61    29    61 1   
    62    30    31 2   
    63    30    33 1   
    64    32    62 1   
    65    32    63 1   
    66    32    64 1   
    67    33    65 1   
    68    33    66 1   
@<TRIPOS>SUBSTRUCTURE
     1 ATN         1 TEMP              0 ****  ****    0 ROOT
