@<TRIPOS>MOLECULE
ATO
   10     9     1     0     0
SMALL
No Charge or Current Charge


@<TRIPOS>ATOM
      1 C1          -0.4600    -0.0070     2.4410 c3         1 ATO      -0.203100
      2 C2           0.1370     0.0160     1.0340 c          1 ATO       0.564100
      3 C3          -0.8750     0.0170    -0.1250 c3         1 ATO      -0.002400
      4 O4           1.3500     0.0320     0.8600 o          1 ATO      -0.481100
      5 Cl          -0.1250     0.0450    -1.7930 cl         1 ATO      -0.232000
      6 H13          0.3050    -0.0070     3.2260 hc         1 ATO       0.064367
      7 H12         -1.1520     0.8360     2.5480 hc         1 ATO       0.064367
      8 H11         -1.1310    -0.8690     2.5280 hc         1 ATO       0.064367
      9 H32         -1.4960    -0.8830    -0.0470 h1         1 ATO       0.080700
     10 H31         -1.5170     0.9000    -0.0270 h1         1 ATO       0.080700
@<TRIPOS>BOND
     1     1     2 1   
     2     1     6 1   
     3     1     7 1   
     4     1     8 1   
     5     2     3 1   
     6     2     4 2   
     7     3     5 1   
     8     3     9 1   
     9     3    10 1   
@<TRIPOS>SUBSTRUCTURE
     1 ATO         1 TEMP              0 ****  ****    0 ROOT
