@<TRIPOS>MOLECULE
ATO
   10     9     1     0     0
SMALL
abcg2


@<TRIPOS>ATOM
      1 C1          -0.4810    -0.0030     2.3960 c3         1 ATO      -0.203100
      2 C2           0.1410     0.0170     1.0300 c          1 ATO       0.564100
      3 C3          -0.8690     0.0080    -0.0970 c3         1 ATO      -0.002400
      4 O4           1.3290     0.0410     0.8350 o          1 ATO      -0.481100
      5 CL          -0.1040     0.0630    -1.6980 cl         1 ATO      -0.232000
      6 H13          0.2790    -0.0340     3.1720 hc         1 ATO       0.064367
      7 H12         -1.1010     0.8850     2.5370 hc         1 ATO       0.064367
      8 H11         -1.1410    -0.8660     2.5020 hc         1 ATO       0.064367
      9 H32         -1.4790    -0.8930    -0.0330 h1         1 ATO       0.080700
     10 H31         -1.5380     0.8630     0.0010 h1         1 ATO       0.080700
@<TRIPOS>BOND
     1     1     2 1   
     2     1     6 1   
     3     1     7 1   
     4     1     8 1   
     5     2     3 1   
     6     2     4 2   
     7     3     5 1   
     8     3     9 1   
     9     3    10 1   
@<TRIPOS>SUBSTRUCTURE
     1 ATO         1 TEMP              0 ****  ****    0 ROOT
