@<TRIPOS>MOLECULE
ATQ
   12    12     1     0     0
SMALL
abcg2


@<TRIPOS>ATOM
      1 N1          -1.3910    -0.2140     0.2490 n2         1 ATQ      -0.668900
      2 C2          -0.2790    -0.0290     0.8330 c2         1 ATQ       0.692100
      3 S3           1.1200     0.4070    -0.1890 ss         1 ATQ      -0.423200
      4 C4           0.1370    -0.0440    -1.6470 c5         1 ATQ       0.040600
      5 C5          -1.3180     0.0660    -1.1660 c5         1 ATQ       0.124800
      6 N2          -0.0560    -0.1680     2.1580 nv         1 ATQ      -1.021200
      7 H41          0.3910    -1.0610    -1.9480 h1         1 ATQ       0.079200
      8 H42          0.3570     0.6320    -2.4700 h1         1 ATQ       0.079200
      9 H51         -1.9460    -0.6250    -1.7300 h1         1 ATQ       0.066200
     10 H52         -1.7000     1.0740    -1.3630 h1         1 ATQ       0.066200
     11 HN21         0.7920     0.1970     2.5570 hn         1 ATQ       0.483000
     12 HN22        -0.8610    -0.1240     2.7630 hn         1 ATQ       0.483000
@<TRIPOS>BOND
     1     1     2 2   
     2     1     5 1   
     3     2     3 1   
     4     2     6 1   
     5     3     4 1   
     6     4     5 1   
     7     4     7 1   
     8     4     8 1   
     9     5     9 1   
    10     5    10 1   
    11     6    11 1   
    12     6    12 1   
@<TRIPOS>SUBSTRUCTURE
     1 ATQ         1 TEMP              0 ****  ****    0 ROOT
