@<TRIPOS>MOLECULE
ATQ
   12    12     1     0     0
SMALL
No Charge or Current Charge


@<TRIPOS>ATOM
      1 N1          -1.4310    -0.2880     0.2840 n2         1 ATQ      -0.668900
      2 C2          -0.2910    -0.0930     0.8100 c2         1 ATQ       0.692100
      3 S3           1.0930     0.4620    -0.1120 ss         1 ATQ      -0.423200
      4 C4           0.1530    -0.0490    -1.6080 c5         1 ATQ       0.040600
      5 C5          -1.3330     0.0940    -1.1650 c5         1 ATQ       0.124800
      6 N2          -0.0110    -0.2340     2.1180 nv         1 ATQ      -1.021200
      7 H41          0.3900    -1.0950    -1.8420 h1         1 ATQ       0.079200
      8 H42          0.4030     0.5720    -2.4780 h1         1 ATQ       0.079200
      9 H51         -1.9770    -0.5510    -1.7800 h1         1 ATQ       0.066200
     10 H52         -1.6860     1.1260    -1.3000 h1         1 ATQ       0.066200
     11 HN21         0.7700     0.3370     2.4150 hn         1 ATQ       0.483000
     12 HN22        -0.8350    -0.1700     2.7040 hn         1 ATQ       0.483000
@<TRIPOS>BOND
     1     1     2 2   
     2     1     5 1   
     3     2     3 1   
     4     2     6 1   
     5     3     4 1   
     6     4     5 1   
     7     4     7 1   
     8     4     8 1   
     9     5     9 1   
    10     5    10 1   
    11     6    11 1   
    12     6    12 1   
@<TRIPOS>SUBSTRUCTURE
     1 ATQ         1 TEMP              0 ****  ****    0 ROOT
