@<TRIPOS>MOLECULE
ATU
   33    36     1     0     0
SMALL
bcc


@<TRIPOS>ATOM
      1 N1           2.6540     1.6790     0.5580 ns         1 ATU      -0.486100
      2 C2           1.5360     2.3440     0.1480 c          1 ATU       0.719500
      3 C3           0.6970     1.6570    -0.9030 c3         1 ATU      -0.085200
      4 O4           1.2500     3.4270     0.6220 o          1 ATU      -0.606500
      5 C5           2.4860    -0.6940    -0.1320 ca         1 ATU      -0.075800
      6 C6           3.2240     0.4760     0.1210 ca         1 ATU       0.101600
      7 C7           4.6170     0.4280     0.0440 ca         1 ATU      -0.170000
      8 C8           5.2760    -0.7450    -0.2690 ca         1 ATU      -0.089000
      9 C9           4.5510    -1.9040    -0.5260 ca         1 ATU      -0.144000
     10 C10          3.1720    -1.8690    -0.4580 ca         1 ATU      -0.098000
     11 N11          0.2880    -1.7660     0.3420 na         1 ATU      -0.153400
     12 C12          0.2110     0.3490    -0.3850 cc         1 ATU      -0.111400
     13 C13          1.0400    -0.6860    -0.0530 cd         1 ATU       0.008700
     14 C14         -1.1230    -0.1050    -0.1620 ca         1 ATU      -0.109800
     15 C15         -1.0260    -1.4430     0.2960 ca         1 ATU      -0.007200
     16 C16         -2.1530    -2.1980     0.6190 ca         1 ATU      -0.157000
     17 C17         -3.3860    -1.6070     0.4720 ca         1 ATU      -0.051000
     18 C18         -3.4830    -0.2830     0.0090 ca         1 ATU      -0.214200
     19 C19         -2.3740     0.4800    -0.3130 ca         1 ATU       0.006000
     20 N20         -4.7960     0.3070    -0.1340 no         1 ATU       0.318200
     21 O21         -4.8760     1.4440    -0.5430 o          1 ATU      -0.216500
     22 O22         -5.7620    -0.3620     0.1610 o          1 ATU      -0.216500
     23 HN1          3.2400     2.2200     1.1810 hn         1 ATU       0.322500
     24 HC31         1.2980     1.5140    -1.8080 hc         1 ATU       0.082200
     25 HC32        -0.1300     2.3140    -1.1670 hc         1 ATU       0.082200
     26 HC7          5.1860     1.3270     0.2460 ha         1 ATU       0.141000
     27 HC8          6.3560    -0.7530    -0.3190 ha         1 ATU       0.140000
     28 HC9          5.0570    -2.8240    -0.7820 ha         1 ATU       0.141000
     29 H10          2.6070    -2.7670    -0.6730 ha         1 ATU       0.131000
     30 H11          0.6580    -2.6310     0.7040 hn         1 ATU       0.309700
     31 H16         -2.0680    -3.2170     0.9720 ha         1 ATU       0.146000
     32 H17         -4.2760    -2.1680     0.7120 ha         1 ATU       0.168000
     33 H19         -2.4720     1.4970    -0.6660 ha         1 ATU       0.174000
@<TRIPOS>BOND
     1     1     2 1   
     2     1     6 1   
     3     1    23 1   
     4     2     3 1   
     5     2     4 2   
     6     3    12 1   
     7     3    24 1   
     8     3    25 1   
     9     5     6 ar  
    10     5    10 ar  
    11     5    13 1   
    12     6     7 ar  
    13     7     8 ar  
    14     7    26 1   
    15     8     9 ar  
    16     8    27 1   
    17     9    10 ar  
    18     9    28 1   
    19    10    29 1   
    20    11    13 1   
    21    11    15 1   
    22    11    30 1   
    23    12    13 2   
    24    12    14 1   
    25    14    15 ar  
    26    14    19 ar  
    27    15    16 ar  
    28    16    17 ar  
    29    16    31 1   
    30    17    18 ar  
    31    17    32 1   
    32    18    19 ar  
    33    18    20 1   
    34    19    33 1   
    35    20    21 1   
    36    20    22 1   
@<TRIPOS>SUBSTRUCTURE
     1 ATU         1 TEMP              0 ****  ****    0 ROOT
