@<TRIPOS>MOLECULE
ATU
   33    36     1     0     0
SMALL
No Charge or Current Charge


@<TRIPOS>ATOM
      1 N1           2.8000     1.8370     0.2560 ns         1 ATU      -0.160000
      2 C2           1.5260     2.3610     0.1830 c          1 ATU       0.577000
      3 C3           0.5920     1.7060    -0.8170 c3         1 ATU      -0.085200
      4 O4           1.1700     3.2850     0.9040 o          1 ATU      -0.531000
      5 C5           2.5320    -0.6580    -0.1280 ca         1 ATU      -0.075800
      6 C6           3.3110     0.5400    -0.0360 ca         1 ATU       0.009000
      7 C7           4.7170     0.4570    -0.0940 ca         1 ATU      -0.152000
      8 C8           5.3680    -0.7740    -0.2490 ca         1 ATU      -0.071000
      9 C9           4.6150    -1.9500    -0.3250 ca         1 ATU      -0.126000
     10 C10          3.2150    -1.8920    -0.2570 ca         1 ATU      -0.080000
     11 N11          0.2870    -1.8430     0.2580 na         1 ATU      -0.203700
     12 C12          0.1820     0.3570    -0.3300 cc         1 ATU      -0.111400
     13 C13          1.0500    -0.7000    -0.0880 cd         1 ATU       0.008700
     14 C14         -1.1500    -0.1440    -0.1330 ca         1 ATU      -0.109800
     15 C15         -1.0390    -1.4570     0.2150 ca         1 ATU      -0.007200
     16 C16         -2.1680    -2.2400     0.4790 ca         1 ATU      -0.139000
     17 C17         -3.4400    -1.6390     0.3760 ca         1 ATU      -0.033000
     18 C18         -3.5640    -0.2670     0.0130 ca         1 ATU      -0.214200
     19 C19         -2.3940     0.4940    -0.2460 ca         1 ATU       0.024000
     20 N20         -4.9130     0.3700    -0.0950 no         1 ATU       0.698200
     21 O21         -4.9710     1.5650    -0.4150 o          1 ATU      -0.406500
     22 O22         -5.9090    -0.3250     0.1390 o          1 ATU      -0.406500
     23 HN1          3.4390     2.4040     0.7970 hn         1 ATU       0.156000
     24 HC31         1.1490     1.5340    -1.7450 hc         1 ATU       0.082200
     25 HC32        -0.2720     2.3510    -1.0040 hc         1 ATU       0.082200
     26 HC7          5.3160     1.3610    -0.0050 ha         1 ATU       0.123000
     27 HC8          6.4540    -0.8170    -0.2950 ha         1 ATU       0.122000
     28 HC9          5.1150    -2.9090    -0.4380 ha         1 ATU       0.123000
     29 H10          2.6610    -2.8240    -0.3340 ha         1 ATU       0.113000
     30 H11          0.6440    -2.7550     0.5160 hn         1 ATU       0.360000
     31 H16         -2.0700    -3.2880     0.7570 ha         1 ATU       0.128000
     32 H17         -4.3230    -2.2430     0.5800 ha         1 ATU       0.150000
     33 H19         -2.4490     1.5450    -0.5250 ha         1 ATU       0.156000
@<TRIPOS>BOND
     1     1     2 1   
     2     1     6 1   
     3     1    23 1   
     4     2     3 1   
     5     2     4 2   
     6     3    12 1   
     7     3    24 1   
     8     3    25 1   
     9     5     6 ar  
    10     5    10 ar  
    11     5    13 1   
    12     6     7 ar  
    13     7     8 ar  
    14     7    26 1   
    15     8     9 ar  
    16     8    27 1   
    17     9    10 ar  
    18     9    28 1   
    19    10    29 1   
    20    11    13 1   
    21    11    15 1   
    22    11    30 1   
    23    12    13 2   
    24    12    14 1   
    25    14    15 ar  
    26    14    19 ar  
    27    15    16 ar  
    28    16    17 ar  
    29    16    31 1   
    30    17    18 ar  
    31    17    32 1   
    32    18    19 ar  
    33    18    20 1   
    34    19    33 1   
    35    20    21 1   
    36    20    22 1   
@<TRIPOS>SUBSTRUCTURE
     1 ATU         1 TEMP              0 ****  ****    0 ROOT
