@<TRIPOS>MOLECULE
ATV
   30    33     1     0     0
SMALL
bcc


@<TRIPOS>ATOM
      1 OAA          1.0230     2.4650    -0.4390 o          1 ATV      -0.596500
      2 OAB          1.4120    -2.0380    -0.6470 o          1 ATV      -0.596500
      3 CAC         -3.1190     2.2270     0.3100 ca         1 ATV      -0.148500
      4 CAD         -2.6870    -2.5850     0.1350 ca         1 ATV      -0.148500
      5 CAE         -3.6960     0.9870     0.3930 ca         1 ATV      -0.074500
      6 CAF         -3.4750    -1.4760     0.3040 ca         1 ATV      -0.074500
      7 CAG         -1.7440     2.3540     0.0550 ca         1 ATV      -0.034500
      8 CAH         -1.3140    -2.4470    -0.1220 ca         1 ATV      -0.034500
      9 CAI          4.7360     0.0250     0.6620 cx         1 ATV       0.058400
     10 CAJ          2.6510     0.3720    -0.8020 c3         1 ATV       0.099000
     11 OAK          3.5960    -0.5050     1.3200 op         1 ATV      -0.380600
     12 CAL          0.4790     1.3810    -0.3780 c          1 ATV       0.737100
     13 CAM          0.7000    -1.0710    -0.4800 c          1 ATV       0.737100
     14 CAN         -2.9190    -0.1800     0.2250 ca         1 ATV      -0.062000
     15 CAO         -0.9610     1.2360    -0.1160 ca         1 ATV      -0.162100
     16 CAP         -0.7420    -1.1980    -0.2070 ca         1 ATV      -0.162100
     17 CAQ         -1.5350    -0.0480    -0.0330 ca         1 ATV       0.022000
     18 CAR          3.4150     0.6120     0.4700 cx         1 ATV       0.038100
     19 NAS          1.2160     0.2180    -0.5540 n          1 ATV      -0.504400
     20 HAC         -3.7200     3.1160     0.4420 ha         1 ATV       0.142000
     21 HAD         -3.1190    -3.5740     0.1980 ha         1 ATV       0.142000
     22 HAE         -4.7570     0.8890     0.5880 ha         1 ATV       0.137500
     23 HAF         -4.5350    -1.5830     0.4970 ha         1 ATV       0.137500
     24 HAG         -1.3030     3.3400    -0.0080 ha         1 ATV       0.158500
     25 HAH         -0.7060    -3.3310    -0.2560 ha         1 ATV       0.158500
     26 HAIA         5.1650    -0.5980    -0.1190 h1         1 ATV       0.076700
     27 HAJ          2.8020     1.2060    -1.4850 h1         1 ATV       0.079200
     28 HAJA         3.0060    -0.5270    -1.2990 h1         1 ATV       0.079200
     29 HAR          3.1860     1.5420     0.9870 h1         1 ATV       0.099700
     30 HAI          5.4600     0.5310     1.2930 h1         1 ATV       0.076700
@<TRIPOS>BOND
     1     1    12 2   
     2     2    13 2   
     3     3     5 ar  
     4     3     7 ar  
     5     3    20 1   
     6     4     6 ar  
     7     4     8 ar  
     8     4    21 1   
     9     5    14 ar  
    10     5    22 1   
    11     6    14 ar  
    12     6    23 1   
    13     7    15 ar  
    14     7    24 1   
    15     8    16 ar  
    16     8    25 1   
    17     9    11 1   
    18     9    18 1   
    19     9    26 1   
    20     9    30 1   
    21    10    18 1   
    22    10    19 1   
    23    10    27 1   
    24    10    28 1   
    25    11    18 1   
    26    12    15 1   
    27    12    19 1   
    28    13    16 1   
    29    13    19 1   
    30    14    17 ar  
    31    15    17 ar  
    32    16    17 ar  
    33    18    29 1   
@<TRIPOS>SUBSTRUCTURE
     1 ATV         1 TEMP              0 ****  ****    0 ROOT
