@<TRIPOS>MOLECULE
ATV
   30    33     1     0     0
SMALL
No Charge or Current Charge


@<TRIPOS>ATOM
      1 OAA          1.0090     2.4720    -0.4220 o          1 ATV      -0.521000
      2 OAB          1.3720    -2.1010    -0.6090 o          1 ATV      -0.521000
      3 CAC         -3.1700     2.2470     0.2990 ca         1 ATV      -0.130500
      4 CAD         -2.7790    -2.5970     0.1210 ca         1 ATV      -0.130500
      5 CAE         -3.7600     0.9760     0.3750 ca         1 ATV      -0.056500
      6 CAF         -3.5640    -1.4470     0.2860 ca         1 ATV      -0.056500
      7 CAG         -1.7920     2.3700     0.0590 ca         1 ATV      -0.016500
      8 CAH         -1.4000    -2.4800    -0.1200 ca         1 ATV      -0.016500
      9 CAI          4.9280     0.1240     0.6140 cx         1 ATV       0.081600
     10 CAJ          2.7040     0.3320    -0.7720 c3         1 ATV       0.099000
     11 OAK          3.8620    -0.5790     1.2960 op         1 ATV      -0.427000
     12 CAL          0.4870     1.3660    -0.3640 c          1 ATV       0.594600
     13 CAM          0.6860    -1.0970    -0.4590 c          1 ATV       0.594600
     14 CAN         -2.9700    -0.1750     0.2090 ca         1 ATV      -0.062000
     15 CAO         -0.9880     1.2210    -0.1090 ca         1 ATV      -0.162100
     16 CAP         -0.7910    -1.2080    -0.1990 ca         1 ATV      -0.162100
     17 CAQ         -1.5810    -0.0540    -0.0330 ca         1 ATV       0.022000
     18 CAR          3.5000     0.5790     0.5070 cx         1 ATV       0.061300
     19 NAS          1.2380     0.1930    -0.5280 n          1 ATV      -0.370400
     20 HAC         -3.7800     3.1380     0.4270 ha         1 ATV       0.124000
     21 HAD         -3.2380    -3.5810     0.1800 ha         1 ATV       0.124000
     22 HAE         -4.8280     0.8890     0.5610 ha         1 ATV       0.119500
     23 HAF         -4.6320    -1.5460     0.4720 ha         1 ATV       0.119500
     24 HAG         -1.3530     3.3650     0.0050 ha         1 ATV       0.140500
     25 HAH         -0.8090    -3.3860    -0.2440 ha         1 ATV       0.140500
     26 HAIA         5.3820    -0.4140    -0.2190 h1         1 ATV       0.076700
     27 HAJ          2.8810     1.1660    -1.4640 h1         1 ATV       0.079200
     28 HAJA         3.0950    -0.5620    -1.2750 h1         1 ATV       0.079200
     29 HAR          3.1950     1.4560     1.0790 h1         1 ATV       0.099700
     30 HAI          5.6110     0.6740     1.2610 h1         1 ATV       0.076700
@<TRIPOS>BOND
     1     1    12 2   
     2     2    13 2   
     3     3     5 ar  
     4     3     7 ar  
     5     3    20 1   
     6     4     6 ar  
     7     4     8 ar  
     8     4    21 1   
     9     5    14 ar  
    10     5    22 1   
    11     6    14 ar  
    12     6    23 1   
    13     7    15 ar  
    14     7    24 1   
    15     8    16 ar  
    16     8    25 1   
    17     9    11 1   
    18     9    18 1   
    19     9    26 1   
    20     9    30 1   
    21    10    18 1   
    22    10    19 1   
    23    10    27 1   
    24    10    28 1   
    25    11    18 1   
    26    12    15 1   
    27    12    19 1   
    28    13    16 1   
    29    13    19 1   
    30    14    17 ar  
    31    15    17 ar  
    32    16    17 ar  
    33    18    29 1   
@<TRIPOS>SUBSTRUCTURE
     1 ATV         1 TEMP              0 ****  ****    0 ROOT
