@<TRIPOS>MOLECULE
ATW
   47    50     1     0     0
SMALL
abcg2


@<TRIPOS>ATOM
      1 N1           1.1480    -3.8810     0.7150 nb         1 ATW      -0.613000
      2 C2          -0.1400    -3.7360     0.4740 ca         1 ATW       0.242900
      3 C3          -0.6490    -2.4690     0.1620 ca         1 ATW       0.464500
      4 N4           0.1290    -1.4070     0.1160 nb         1 ATW      -0.743000
      5 C5           1.4180    -1.5680     0.3610 ca         1 ATW       0.475500
      6 C6           1.9430    -2.8250     0.6590 ca         1 ATW       0.235900
      7 N13         -1.9940    -2.2810    -0.1030 na         1 ATW       0.051100
      8 N15          2.2140    -0.4360     0.2900 na         1 ATW      -0.008500
      9 C17         -2.7120    -1.1100    -0.2240 ca         1 ATW       0.048800
     10 C18         -4.0300    -1.5150    -0.4910 ca         1 ATW      -0.289900
     11 C19         -3.9840    -2.9360    -0.5030 cc         1 ATW       0.384800
     12 N20         -2.7840    -3.3740    -0.2700 nd         1 ATW      -0.522100
     13 C26          3.4990    -0.3090     0.7810 cc         1 ATW      -0.235000
     14 C27          3.9590     0.9410     0.4900 cd         1 ATW      -0.021300
     15 C28          2.9070     1.6070    -0.2130 cd         1 ATW      -0.132000
     16 C29          1.8550     0.7500    -0.3130 cc         1 ATW      -0.197000
     17 C35         -5.0260    -0.5510    -0.6540 ca         1 ATW      -0.010000
     18 C36         -4.6980     0.7770    -0.5410 ca         1 ATW      -0.205000
     19 C37         -3.3670     1.1880    -0.2580 ca         1 ATW       0.354000
     20 C38         -2.3610     0.2290    -0.0990 ca         1 ATW      -0.199000
     21 N44         -3.0390     2.5120    -0.1750 nu         1 ATW      -0.955200
     22 C46         -3.9940     3.5830     0.0600 c3         1 ATW       0.228500
     23 C48         -4.6100     3.5220     1.4560 c3         1 ATW      -0.113100
     24 C51         -3.2930     4.9130    -0.1800 c3         1 ATW      -0.113100
     25 C57          5.2870     1.5070     0.8530 c3         1 ATW      -0.166100
     26 C59          6.2390     1.7720    -0.3380 c          1 ATW       0.723000
     27 O61          5.8290     1.5060    -1.4820 o          1 ATW      -0.728500
     28 O63          7.3550     2.2360    -0.0310 o          1 ATW      -0.728500
     29 H2          -0.7730    -4.6100     0.5230 h4         1 ATW       0.047100
     30 H6           2.9980    -2.9860     0.8390 h4         1 ATW       0.047100
     31 H19         -4.7940    -3.6290    -0.6770 h4         1 ATW       0.042800
     32 H26          3.9790    -1.1060     1.3240 h4         1 ATW       0.137000
     33 H28          2.9330     2.6130    -0.6000 ha         1 ATW       0.137000
     34 H29          0.8950     0.8650    -0.7860 h4         1 ATW       0.143000
     35 H35         -6.0480    -0.8420    -0.8630 ha         1 ATW       0.109000
     36 H36         -5.4740     1.5180    -0.6700 ha         1 ATW       0.110000
     37 H38         -1.3490     0.5300     0.1230 ha         1 ATW       0.153000
     38 HN44        -2.1160     2.6970     0.1860 hn         1 ATW       0.477000
     39 H46         -4.7920     3.4940    -0.6820 h1         1 ATW       0.055700
     40 H48         -3.8410     3.6520     2.2210 hc         1 ATW       0.041867
     41 H48A        -5.3530     4.3100     1.5870 hc         1 ATW       0.041867
     42 H48B        -5.1060     2.5670     1.6350 hc         1 ATW       0.041867
     43 H51         -2.8700     4.9600    -1.1830 hc         1 ATW       0.041867
     44 H51A        -3.9960     5.7380    -0.0690 hc         1 ATW       0.041867
     45 H51B        -2.4860     5.0670     0.5400 hc         1 ATW       0.041867
     46 H57          5.1560     2.4520     1.3910 hc         1 ATW       0.030700
     47 H57A         5.7950     0.8410     1.5570 hc         1 ATW       0.030700
@<TRIPOS>BOND
     1     1     2 ar  
     2     1     6 ar  
     3     2     3 ar  
     4     2    29 1   
     5     3     4 ar  
     6     3     7 1   
     7     4     5 ar  
     8     5     6 ar  
     9     5     8 1   
    10     6    30 1   
    11     7     9 1   
    12     7    12 1   
    13     8    13 1   
    14     8    16 1   
    15     9    10 ar  
    16     9    20 ar  
    17    10    11 1   
    18    10    17 ar  
    19    11    12 2   
    20    11    31 1   
    21    13    14 2   
    22    13    32 1   
    23    14    15 1   
    24    14    25 1   
    25    15    16 2   
    26    15    33 1   
    27    16    34 1   
    28    17    18 ar  
    29    17    35 1   
    30    18    19 ar  
    31    18    36 1   
    32    19    20 ar  
    33    19    21 1   
    34    20    37 1   
    35    21    22 1   
    36    21    38 1   
    37    22    23 1   
    38    22    24 1   
    39    22    39 1   
    40    23    40 1   
    41    23    41 1   
    42    23    42 1   
    43    24    43 1   
    44    24    44 1   
    45    24    45 1   
    46    25    26 1   
    47    25    46 1   
    48    25    47 1   
    49    26    27 1   
    50    26    28 1   
@<TRIPOS>SUBSTRUCTURE
     1 ATW         1 TEMP              0 ****  ****    0 ROOT
