@<TRIPOS>MOLECULE
ATW
   47    50     1     0     0
SMALL
No Charge or Current Charge


@<TRIPOS>ATOM
      1 N1           0.8720    -2.8890     1.9200 nb         1 ATW      -0.613000
      2 C2          -0.3380    -2.8340     1.2980 ca         1 ATW       0.242900
      3 C3          -0.6100    -1.9890     0.1830 ca         1 ATW       0.464500
      4 N4           0.3700    -1.1760    -0.3210 nb         1 ATW      -0.743000
      5 C5           1.6000    -1.2050     0.2810 ca         1 ATW       0.475500
      6 C6           1.8260    -2.0690     1.3970 ca         1 ATW       0.235900
      7 N13         -1.9090    -2.0520    -0.3420 na         1 ATW       0.051100
      8 N15          2.6770    -0.4090    -0.1500 na         1 ATW      -0.008500
      9 C17         -2.7610    -0.9660    -0.4040 ca         1 ATW       0.048800
     10 C18         -3.9180    -1.4210    -0.9500 ca         1 ATW      -0.289900
     11 C19         -3.7110    -2.8260    -1.2110 cc         1 ATW       0.384800
     12 N20         -2.4850    -3.2300    -0.8390 nd         1 ATW      -0.522100
     13 C26          3.6040     0.1910     0.7060 cc         1 ATW      -0.235000
     14 C27          4.4550     0.8820    -0.1200 cd         1 ATW      -0.021300
     15 C28          4.0170     0.7030    -1.4570 cd         1 ATW      -0.132000
     16 C29          2.9030    -0.0930    -1.4870 cc         1 ATW      -0.197000
     17 C35         -5.0220    -0.5880    -1.1620 ca         1 ATW      -0.010000
     18 C36         -4.8920     0.7640    -0.7800 ca         1 ATW      -0.205000
     19 C37         -3.6890     1.2430    -0.2030 ca         1 ATW       0.354000
     20 C38         -2.6020     0.3690    -0.0120 ca         1 ATW      -0.199000
     21 N44         -3.5470     2.5780     0.1780 nu         1 ATW      -0.955200
     22 C46         -4.6160     3.5070     0.5650 c3         1 ATW       0.228500
     23 C48         -5.2850     3.0320     1.8710 c3         1 ATW      -0.113100
     24 C51         -4.0250     4.9220     0.7020 c3         1 ATW      -0.113100
     25 C57          5.6410     1.7090     0.3070 c3         1 ATW      -0.166100
     26 C59          6.9700     0.9880     0.0240 c          1 ATW       0.723000
     27 O61          7.4770     1.1260    -1.0800 o          1 ATW      -0.728500
     28 O63          7.4010     0.2200     0.8720 o          1 ATW      -0.728500
     29 H2          -1.1150    -3.4810     1.7040 h4         1 ATW       0.047100
     30 H6           2.8010    -2.1140     1.8790 h4         1 ATW       0.047100
     31 H19         -4.3710    -3.5690    -1.6390 h4         1 ATW       0.042800
     32 H26          3.5870     0.0910     1.7840 h4         1 ATW       0.137000
     33 H28          4.4910     1.1400    -2.3310 ha         1 ATW       0.137000
     34 H29          2.2850    -0.4470    -2.3030 h4         1 ATW       0.143000
     35 H35         -5.9430    -0.9650    -1.6030 ha         1 ATW       0.109000
     36 H36         -5.7290     1.4360    -0.9380 ha         1 ATW       0.110000
     37 H38         -1.6720     0.7200     0.4250 ha         1 ATW       0.153000
     38 HN44        -2.6090     2.8330     0.4860 hn         1 ATW       0.477000
     39 H46         -5.3810     3.5450    -0.2240 h1         1 ATW       0.055700
     40 H48         -4.5550     2.9770     2.6880 hc         1 ATW       0.041867
     41 H48A        -6.0810     3.7250     2.1670 hc         1 ATW       0.041867
     42 H48B        -5.7340     2.0400     1.7430 hc         1 ATW       0.041867
     43 H51         -3.5730     5.2460    -0.2430 hc         1 ATW       0.041867
     44 H51A        -4.8110     5.6410     0.9630 hc         1 ATW       0.041867
     45 H51B        -3.2570     4.9560     1.4840 hc         1 ATW       0.041867
     46 H57          5.5920     2.6380    -0.2750 hc         1 ATW       0.030700
     47 H57A         5.5340     1.8750     1.3850 hc         1 ATW       0.030700
@<TRIPOS>BOND
     1     1     2 ar  
     2     1     6 ar  
     3     2     3 ar  
     4     2    29 1   
     5     3     4 ar  
     6     3     7 1   
     7     4     5 ar  
     8     5     6 ar  
     9     5     8 1   
    10     6    30 1   
    11     7     9 1   
    12     7    12 1   
    13     8    13 1   
    14     8    16 1   
    15     9    10 ar  
    16     9    20 ar  
    17    10    11 1   
    18    10    17 ar  
    19    11    12 2   
    20    11    31 1   
    21    13    14 2   
    22    13    32 1   
    23    14    15 1   
    24    14    25 1   
    25    15    16 2   
    26    15    33 1   
    27    16    34 1   
    28    17    18 ar  
    29    17    35 1   
    30    18    19 ar  
    31    18    36 1   
    32    19    20 ar  
    33    19    21 1   
    34    20    37 1   
    35    21    22 1   
    36    21    38 1   
    37    22    23 1   
    38    22    24 1   
    39    22    39 1   
    40    23    40 1   
    41    23    41 1   
    42    23    42 1   
    43    24    43 1   
    44    24    44 1   
    45    24    45 1   
    46    25    26 1   
    47    25    46 1   
    48    25    47 1   
    49    26    27 1   
    50    26    28 1   
@<TRIPOS>SUBSTRUCTURE
     1 ATW         1 TEMP              0 ****  ****    0 ROOT
