@<TRIPOS>MOLECULE
ATX
   29    29     1     0     0
SMALL
abcg2


@<TRIPOS>ATOM
      1 N            4.1990    -0.2320    -1.0970 n8         1 ATX      -0.981200
      2 CA           3.1030    -0.5810    -0.2200 c3         1 ATX       0.080500
      3 C            1.8760     0.2080    -0.6120 c          1 ATX       0.517600
      4 O            1.9050     1.2570    -1.2050 o          1 ATX      -0.464100
      5 CB           3.3730    -0.3460     1.2750 c3         1 ATX      -0.130100
      6 C5           0.5720    -0.3520    -0.1880 cc         1 ATX       0.325500
      7 N4           0.3190    -1.5030     0.3240 nd         1 ATX      -0.333000
      8 N3          -1.0280    -1.5590     0.5140 nd         1 ATX      -0.367000
      9 C2          -1.5110    -0.4320     0.1040 cc         1 ATX       0.436300
     10 O1          -0.5430     0.3710    -0.3540 os         1 ATX      -0.242000
     11 C6          -2.9250     0.0470     0.1060 c3         1 ATX      -0.068300
     12 C7          -3.8340    -1.0780     0.5960 c3         1 ATX      -0.087100
     13 C8          -3.0320     1.2530     1.0520 c3         1 ATX      -0.087100
     14 C9          -3.3240     0.4620    -1.3160 c3         1 ATX      -0.087100
     15 HN1          4.5020     0.7180    -0.9180 hn         1 ATX       0.405500
     16 HN2          4.9910    -0.8200    -0.8680 hn         1 ATX       0.405500
     17 HA           2.8800    -1.6420    -0.3610 h1         1 ATX       0.099700
     18 HB1          3.5880     0.7060     1.4690 hc         1 ATX       0.049367
     19 HB2          2.5380    -0.6490     1.9070 hc         1 ATX       0.049367
     20 HB3          4.2430    -0.9310     1.5740 hc         1 ATX       0.049367
     21 H71         -3.5650    -1.4110     1.5980 hc         1 ATX       0.047478
     22 H72         -4.8620    -0.7170     0.6270 hc         1 ATX       0.047478
     23 H73         -3.8040    -1.9410    -0.0700 hc         1 ATX       0.047478
     24 H81         -2.4110     2.0870     0.7250 hc         1 ATX       0.047478
     25 H82         -4.0650     1.6000     1.0750 hc         1 ATX       0.047478
     26 H83         -2.7430     0.9880     2.0700 hc         1 ATX       0.047478
     27 H91         -3.2280    -0.3690    -2.0150 hc         1 ATX       0.047478
     28 H92         -4.3660     0.7830    -1.3150 hc         1 ATX       0.047478
     29 H93         -2.7230     1.2940    -1.6840 hc         1 ATX       0.047478
@<TRIPOS>BOND
     1     1     2 1   
     2     1    15 1   
     3     1    16 1   
     4     2     3 1   
     5     2     5 1   
     6     2    17 1   
     7     3     4 2   
     8     3     6 1   
     9     5    18 1   
    10     5    19 1   
    11     5    20 1   
    12     6     7 2   
    13     6    10 1   
    14     7     8 1   
    15     8     9 2   
    16     9    10 1   
    17     9    11 1   
    18    11    12 1   
    19    11    13 1   
    20    11    14 1   
    21    12    21 1   
    22    12    22 1   
    23    12    23 1   
    24    13    24 1   
    25    13    25 1   
    26    13    26 1   
    27    14    27 1   
    28    14    28 1   
    29    14    29 1   
@<TRIPOS>SUBSTRUCTURE
     1 ATX         1 TEMP              0 ****  ****    0 ROOT
