@<TRIPOS>MOLECULE
ATX
   29    29     1     0     0
SMALL
No Charge or Current Charge


@<TRIPOS>ATOM
      1 N            4.3560    -0.2250    -1.1110 n8         1 ATX      -0.981200
      2 CA           3.1600    -0.5370    -0.2560 c3         1 ATX       0.080500
      3 C            1.8880     0.3580    -0.4990 c          1 ATX       0.517600
      4 O            1.9980     1.4880    -0.9780 o          1 ATX      -0.464100
      5 CB           3.5880    -0.5170     1.2290 c3         1 ATX      -0.130100
      6 C5           0.5630    -0.2290    -0.1310 cc         1 ATX       0.325500
      7 N4           0.3250    -1.4330     0.3790 nd         1 ATX      -0.333000
      8 N3          -1.0310    -1.5270     0.5500 nd         1 ATX      -0.367000
      9 C2          -1.5400    -0.3780     0.1350 cc         1 ATX       0.436300
     10 O1          -0.5870     0.4830    -0.3080 os         1 ATX      -0.242000
     11 C6          -3.0030     0.0490     0.1060 c3         1 ATX      -0.068300
     12 C7          -3.9300    -1.0750     0.6510 c3         1 ATX      -0.087100
     13 C8          -3.1910     1.3160     0.9830 c3         1 ATX      -0.087100
     14 C9          -3.4210     0.3720    -1.3540 c3         1 ATX      -0.087100
     15 HN1          4.6410     0.7510    -0.9540 hn         1 ATX       0.405500
     16 HN2          5.1650    -0.7680    -0.7850 hn         1 ATX       0.405500
     17 HA           2.8520    -1.5670    -0.4920 h1         1 ATX       0.099700
     18 HB1          3.8850     0.4930     1.5380 hc         1 ATX       0.049367
     19 HB2          2.7650    -0.8420     1.8770 hc         1 ATX       0.049367
     20 HB3          4.4340    -1.1950     1.4030 hc         1 ATX       0.049367
     21 H71         -3.6770    -1.3250     1.6890 hc         1 ATX       0.047478
     22 H72         -4.9820    -0.7630     0.6290 hc         1 ATX       0.047478
     23 H73         -3.8380    -1.9870     0.0490 hc         1 ATX       0.047478
     24 H81         -2.5830     2.1500     0.6090 hc         1 ATX       0.047478
     25 H82         -4.2390     1.6410     0.9880 hc         1 ATX       0.047478
     26 H83         -2.8920     1.1200     2.0200 hc         1 ATX       0.047478
     27 H91         -3.2880    -0.5040    -2.0010 hc         1 ATX       0.047478
     28 H92         -4.4750     0.6740    -1.4050 hc         1 ATX       0.047478
     29 H93         -2.8170     1.1900    -1.7670 hc         1 ATX       0.047478
@<TRIPOS>BOND
     1     1     2 1   
     2     1    15 1   
     3     1    16 1   
     4     2     3 1   
     5     2     5 1   
     6     2    17 1   
     7     3     4 2   
     8     3     6 1   
     9     5    18 1   
    10     5    19 1   
    11     5    20 1   
    12     6     7 2   
    13     6    10 1   
    14     7     8 1   
    15     8     9 2   
    16     9    10 1   
    17     9    11 1   
    18    11    12 1   
    19    11    13 1   
    20    11    14 1   
    21    12    21 1   
    22    12    22 1   
    23    12    23 1   
    24    13    24 1   
    25    13    25 1   
    26    13    26 1   
    27    14    27 1   
    28    14    28 1   
    29    14    29 1   
@<TRIPOS>SUBSTRUCTURE
     1 ATX         1 TEMP              0 ****  ****    0 ROOT
