@<TRIPOS>MOLECULE
ATZ
   28    28     1     0     0
SMALL
No Charge or Current Charge


@<TRIPOS>ATOM
      1 N1           0.8900     0.0070     1.4700 nb         1 ATZ      -0.308000
      2 C2           1.5210    -0.0390     0.2820 ca         1 ATZ       0.306000
      3 Cl2          3.2760    -0.0030     0.3000 cl         1 ATZ      -0.144000
      4 N3           0.9180    -0.1090    -0.9200 nb         1 ATZ      -0.309000
      5 C4          -0.4240    -0.1310    -0.8630 ca         1 ATZ       0.444900
      6 N5          -1.1640    -0.0930     0.2520 nb         1 ATZ      -0.369000
      7 C6          -0.4510    -0.0240     1.3830 ca         1 ATZ       0.442900
      8 N7          -1.1380    -0.2070    -2.0430 nu         1 ATZ      -0.912100
      9 C8          -0.6200    -0.1570    -3.4170 c3         1 ATZ       0.248500
     10 C9          -1.6570    -0.7840    -4.3680 c3         1 ATZ      -0.110100
     11 C10         -0.2910     1.3000    -3.8030 c3         1 ATZ      -0.110100
     12 N11         -1.1870     0.0170     2.5490 nu         1 ATZ      -0.914100
     13 C12         -0.6750     0.0940     3.9260 c3         1 ATZ       0.239800
     14 C13         -1.8430     0.1180     4.9250 c3         1 ATZ      -0.115100
     15 HN7         -2.1500    -0.2190    -1.9230 hn         1 ATZ       0.503000
     16 H8           0.3000    -0.7560    -3.4930 h1         1 ATZ       0.082700
     17 H91         -1.2810    -0.7830    -5.3970 hc         1 ATZ       0.044200
     18 H92         -1.8630    -1.8230    -4.0850 hc         1 ATZ       0.044200
     19 H93         -2.6010    -0.2250    -4.3480 hc         1 ATZ       0.044200
     20 H101        -1.1840     1.9330    -3.7440 hc         1 ATZ       0.044200
     21 H102         0.4730     1.7170    -3.1360 hc         1 ATZ       0.044200
     22 H103         0.0960     1.3460    -4.8270 hc         1 ATZ       0.044200
     23 H11         -2.1980    -0.0100     2.4180 hn         1 ATZ       0.507000
     24 H121        -0.0700     1.0030     4.0560 h1         1 ATZ       0.057200
     25 H122        -0.0340    -0.7720     4.1420 h1         1 ATZ       0.057200
     26 H131        -1.4590     0.1760     5.9500 hc         1 ATZ       0.044700
     27 H132        -2.4860     0.9890     4.7520 hc         1 ATZ       0.044700
     28 H133        -2.4490    -0.7910     4.8380 hc         1 ATZ       0.044700
@<TRIPOS>BOND
     1     1     2 ar  
     2     1     7 ar  
     3     2     3 1   
     4     2     4 ar  
     5     4     5 ar  
     6     5     6 ar  
     7     5     8 1   
     8     6     7 ar  
     9     7    12 1   
    10     8     9 1   
    11     8    15 1   
    12     9    10 1   
    13     9    11 1   
    14     9    16 1   
    15    10    17 1   
    16    10    18 1   
    17    10    19 1   
    18    11    20 1   
    19    11    21 1   
    20    11    22 1   
    21    12    13 1   
    22    12    23 1   
    23    13    14 1   
    24    13    24 1   
    25    13    25 1   
    26    14    26 1   
    27    14    27 1   
    28    14    28 1   
@<TRIPOS>SUBSTRUCTURE
     1 ATZ         1 TEMP              0 ****  ****    0 ROOT
