@<TRIPOS>MOLECULE
ATZ
   28    28     1     0     0
SMALL
bcc


@<TRIPOS>ATOM
      1 N1           0.7610    -0.0050     1.4490 nb         1 ATZ      -0.834000
      2 C2           1.3320    -0.0530     0.2760 ca         1 ATZ       0.832000
      3 CL2          3.0680    -0.0550     0.2930 cl         1 ATZ      -0.144000
      4 N3           0.7850    -0.0960    -0.9090 nb         1 ATZ      -0.835000
      5 C4          -0.5650    -0.0920    -0.8710 ca         1 ATZ       0.970900
      6 N5          -1.2860    -0.0460     0.2470 nb         1 ATZ      -0.895000
      7 C6          -0.5870    -0.0060     1.3800 ca         1 ATZ       0.968900
      8 N7          -1.2200    -0.1490    -2.0290 nu         1 ATZ      -0.856900
      9 C8          -0.6080    -0.1330    -3.3490 c3         1 ATZ       0.248500
     10 C9          -1.5500    -0.8080    -4.3340 c3         1 ATZ      -0.110100
     11 C10         -0.2550     1.2850    -3.7830 c3         1 ATZ      -0.110100
     12 N11         -1.2600     0.0360     2.5270 nu         1 ATZ      -0.858900
     13 C12         -0.6480     0.0980     3.8400 c3         1 ATZ       0.239800
     14 C13         -1.7180     0.0770     4.9150 c3         1 ATZ      -0.115100
     15 HN7         -2.2250    -0.0850    -1.9710 hn         1 ATZ       0.447800
     16 H8           0.3100    -0.7210    -3.2880 h1         1 ATZ       0.082700
     17 H91         -1.0850    -0.8610    -5.3180 hc         1 ATZ       0.044200
     18 H92         -1.7930    -1.8230    -4.0180 hc         1 ATZ       0.044200
     19 H93         -2.4820    -0.2480    -4.4390 hc         1 ATZ       0.044200
     20 H101        -1.1470     1.9110    -3.8260 hc         1 ATZ       0.044200
     21 H102         0.4530     1.7440    -3.0920 hc         1 ATZ       0.044200
     22 H103         0.2010     1.2770    -4.7740 hc         1 ATZ       0.044200
     23 H11         -2.2650     0.0510     2.4590 hn         1 ATZ       0.451800
     24 H121        -0.0450     1.0050     3.9290 h1         1 ATZ       0.057200
     25 H122         0.0320    -0.7460     3.9710 h1         1 ATZ       0.057200
     26 H131        -1.2540     0.1240     5.8990 hc         1 ATZ       0.044700
     27 H132        -2.3920     0.9290     4.8220 hc         1 ATZ       0.044700
     28 H133        -2.3100    -0.8380     4.8680 hc         1 ATZ       0.044700
@<TRIPOS>BOND
     1     1     2 ar  
     2     1     7 ar  
     3     2     3 1   
     4     2     4 ar  
     5     4     5 ar  
     6     5     6 ar  
     7     5     8 1   
     8     6     7 ar  
     9     7    12 1   
    10     8     9 1   
    11     8    15 1   
    12     9    10 1   
    13     9    11 1   
    14     9    16 1   
    15    10    17 1   
    16    10    18 1   
    17    10    19 1   
    18    11    20 1   
    19    11    21 1   
    20    11    22 1   
    21    12    13 1   
    22    12    23 1   
    23    13    14 1   
    24    13    24 1   
    25    13    25 1   
    26    14    26 1   
    27    14    27 1   
    28    14    28 1   
@<TRIPOS>SUBSTRUCTURE
     1 ATZ         1 TEMP              0 ****  ****    0 ROOT
