@<TRIPOS>MOLECULE
AU0
   70    74     1     0     0
SMALL
bcc


@<TRIPOS>ATOM
      1 N          -10.2140    17.3440   -12.4580 n2         1 AU0      -0.625900
      2 C          -14.0310    22.8760   -14.5970 c3         1 AU0       0.123700
      3 C1         -12.7250    21.6660   -13.0310 ca         1 AU0       0.203100
      4 C10        -10.8610    18.0910   -11.6520 ce         1 AU0       0.553500
      5 C11         -9.8830    16.1130   -11.7620 c5         1 AU0       0.153800
      6 C12         -8.5360    15.5620   -12.1260 ca         1 AU0      -0.059300
      7 C13         -8.3000    14.1950   -12.0430 ca         1 AU0      -0.120000
      8 C14         -7.0410    13.6760   -12.2930 ca         1 AU0      -0.118000
      9 C15         -5.9990    14.5240   -12.6350 ca         1 AU0       0.029400
     10 C16         -6.2310    15.8920   -12.7300 ca         1 AU0       0.025400
     11 C17         -7.4940    16.4060   -12.4830 ca         1 AU0      -0.081000
     12 C18        -10.0400    16.4580   -10.2430 c5         1 AU0       0.144000
     13 C19         -8.7330    16.7780    -9.5690 ca         1 AU0      -0.077300
     14 C2         -12.7840    20.4950   -13.7820 ca         1 AU0      -0.271000
     15 C20         -8.0210    15.7420    -8.9730 ca         1 AU0      -0.106000
     16 C21         -6.7570    15.9530    -8.4540 ca         1 AU0      -0.114000
     17 C22         -6.1850    17.2150    -8.5190 ca         1 AU0       0.033400
     18 C23         -6.8960    18.2580    -9.0990 ca         1 AU0       0.024400
     19 C24         -8.1620    18.0420    -9.6200 ca         1 AU0      -0.088000
     20 C26        -13.8130    18.0400   -10.5830 c6         1 AU0       0.094000
     21 C27        -14.8600    17.1860    -9.8930 c6         1 AU0       0.084000
     22 C28        -14.8900    18.9160    -8.1090 c          1 AU0       0.693500
     23 C29        -13.5650    19.4350    -8.6320 c6         1 AU0       0.014000
     24 C3         -12.1490    19.3660   -13.2930 ca         1 AU0      -0.017000
     25 C4         -11.4710    19.3560   -12.0820 ca         1 AU0      -0.226900
     26 C5         -11.3930    20.5540   -11.3450 ca         1 AU0       0.235100
     27 C7          -9.2420    22.4580   -10.2160 c3         1 AU0      -0.111600
     28 C8          -9.9330    21.2940    -8.1010 c3         1 AU0      -0.111600
     29 C9         -12.0240    21.6920   -11.8230 ca         1 AU0      -0.276000
     30 N1         -10.9590    17.5810   -10.3600 n          1 AU0      -0.459300
     31 N2         -12.9060    18.5760    -9.5860 n          1 AU0      -0.483800
     32 N3         -15.4430    17.8900    -8.7700 ns         1 AU0      -0.575900
     33 O1         -10.6910    20.5100   -10.2040 os         1 AU0      -0.332900
     34 O3         -15.4260    19.4640    -7.1570 o          1 AU0      -0.634500
     35 CL          -4.4360    13.8710   -12.9440 cl         1 AU0      -0.080400
     36 CL1         -4.9520    16.9680   -13.1520 cl         1 AU0      -0.077400
     37 CL2         -4.6080    17.4720    -7.8760 cl         1 AU0      -0.080400
     38 CL3         -6.2120    19.8390    -9.1810 cl         1 AU0      -0.089400
     39 H2         -14.4040    23.8930   -14.6870 h1         1 AU0       0.045033
     40 H3         -13.4010    22.6530   -15.4610 h1         1 AU0       0.045033
     41 H4         -14.8810    22.1890   -14.5910 h1         1 AU0       0.045033
     42 H          -10.6410    15.3600   -12.0120 h1         1 AU0       0.070700
     43 H15         -9.1040    13.5220   -11.7710 ha         1 AU0       0.133000
     44 H16         -6.8650    12.6110   -12.2250 ha         1 AU0       0.149000
     45 H17         -7.6570    17.4720   -12.5650 ha         1 AU0       0.166000
     46 H1         -10.5200    15.6300    -9.7200 h1         1 AU0       0.078700
     47 H5         -13.3130    20.4410   -14.7230 ha         1 AU0       0.144000
     48 H18         -8.4520    14.7500    -8.9220 ha         1 AU0       0.135000
     49 H19         -6.2110    15.1390    -7.9960 ha         1 AU0       0.151000
     50 H20         -8.6920    18.8740   -10.0620 ha         1 AU0       0.164000
     51 H22        -13.2940    17.4230   -11.3100 h1         1 AU0       0.068200
     52 H21        -14.2780    18.8670   -11.1260 h1         1 AU0       0.068200
     53 H23        -15.6500    16.9390   -10.6030 h1         1 AU0       0.047700
     54 H24        -14.4080    16.2460    -9.5630 h1         1 AU0       0.047700
     55 H26        -12.9180    19.6250    -7.7790 h1         1 AU0       0.088200
     56 H27        -13.7660    20.4050    -9.1040 h1         1 AU0       0.088200
     57 H6         -12.2030    18.4470   -13.8620 ha         1 AU0       0.146000
     58 H7         -11.2410    22.3440    -9.4120 h1         1 AU0       0.044700
     59 H8          -8.9940    23.3670    -9.6680 hc         1 AU0       0.052700
     60 H9          -8.3430    21.8420   -10.2720 hc         1 AU0       0.052700
     61 H10         -9.5230    22.7500   -11.2280 hc         1 AU0       0.052700
     62 H13         -9.6850    22.1830    -7.5200 hc         1 AU0       0.052700
     63 H12        -10.7310    20.7660    -7.5810 hc         1 AU0       0.052700
     64 H11         -9.0500    20.6550    -8.1250 hc         1 AU0       0.052700
     65 H14        -11.9820    22.6290   -11.2840 ha         1 AU0       0.156000
     66 H25        -16.3160    17.5390    -8.4040 hn         1 AU0       0.319500
     67 C25        -11.6980    18.0290    -9.2760 c          1 AU0       0.828100
     68 O          -13.3030    22.8220   -13.3840 os         1 AU0      -0.313900
     69 C6         -10.3520    21.7130    -9.4950 c3         1 AU0       0.156100
     70 O2         -11.2660    17.9160    -8.1450 o          1 AU0      -0.581100
@<TRIPOS>BOND
     1     1     4 2   
     2     1     5 1   
     3     2    39 1   
     4     2    40 1   
     5     2    41 1   
     6     2    68 1   
     7     3    14 ar  
     8     3    29 ar  
     9     3    68 1   
    10     4    25 1   
    11     4    30 1   
    12     5     6 1   
    13     5    12 1   
    14     5    42 1   
    15     6     7 ar  
    16     6    11 ar  
    17     7     8 ar  
    18     7    43 1   
    19     8     9 ar  
    20     8    44 1   
    21     9    10 ar  
    22     9    35 1   
    23    10    11 ar  
    24    10    36 1   
    25    11    45 1   
    26    12    13 1   
    27    12    30 1   
    28    12    46 1   
    29    13    15 ar  
    30    13    19 ar  
    31    14    24 ar  
    32    14    47 1   
    33    15    16 ar  
    34    15    48 1   
    35    16    17 ar  
    36    16    49 1   
    37    17    18 ar  
    38    17    37 1   
    39    18    19 ar  
    40    18    38 1   
    41    19    50 1   
    42    20    21 1   
    43    20    31 1   
    44    20    51 1   
    45    20    52 1   
    46    21    32 1   
    47    21    53 1   
    48    21    54 1   
    49    22    23 1   
    50    22    32 1   
    51    22    34 2   
    52    23    31 1   
    53    23    55 1   
    54    23    56 1   
    55    24    25 ar  
    56    24    57 1   
    57    25    26 ar  
    58    26    29 ar  
    59    26    33 1   
    60    27    59 1   
    61    27    60 1   
    62    27    61 1   
    63    27    69 1   
    64    28    62 1   
    65    28    63 1   
    66    28    64 1   
    67    28    69 1   
    68    29    65 1   
    69    30    67 1   
    70    31    67 1   
    71    32    66 1   
    72    33    69 1   
    73    58    69 1   
    74    67    70 2   
@<TRIPOS>SUBSTRUCTURE
     1 AU0         1 TEMP              0 ****  ****    0 ROOT
