@<TRIPOS>MOLECULE
AU0
   70    74     1     0     0
SMALL
No Charge or Current Charge


@<TRIPOS>ATOM
      1 N          -10.4450    17.1690   -12.5320 n2         1 AU0      -0.625900
      2 C          -14.0040    23.1000   -14.4760 c3         1 AU0       0.146900
      3 C1         -12.7000    21.6960   -12.9230 ca         1 AU0       0.203100
      4 C10        -11.0500    17.9090   -11.6630 ce         1 AU0       0.553500
      5 C11         -9.9110    15.9790   -11.7800 c5         1 AU0       0.153800
      6 C12         -8.4730    15.5510   -12.1090 ca         1 AU0      -0.059300
      7 C13         -7.9910    14.3110   -11.6380 ca         1 AU0      -0.102000
      8 C14         -6.6660    13.9140   -11.8880 ca         1 AU0      -0.100000
      9 C15         -5.8040    14.7500   -12.6140 ca         1 AU0       0.121000
     10 C16         -6.2750    15.9860   -13.1010 ca         1 AU0       0.117000
     11 C17         -7.6020    16.3770   -12.8550 ca         1 AU0      -0.063000
     12 C18        -10.0230    16.3130   -10.2330 c5         1 AU0       0.144000
     13 C19         -8.6820    16.8010    -9.6500 ca         1 AU0      -0.077300
     14 C2         -12.8610    20.5420   -13.7110 ca         1 AU0      -0.253000
     15 C20         -8.0770    16.0510    -8.6210 ca         1 AU0      -0.088000
     16 C21         -6.8360    16.4340    -8.0840 ca         1 AU0      -0.096000
     17 C22         -6.1780    17.5730    -8.5710 ca         1 AU0       0.125000
     18 C23         -6.7720    18.3380    -9.5940 ca         1 AU0       0.116000
     19 C24         -8.0190    17.9600   -10.1200 ca         1 AU0      -0.070000
     20 C26        -13.9220    17.9900   -10.5800 c6         1 AU0       0.094000
     21 C27        -15.2530    17.3680   -10.1010 c6         1 AU0       0.084000
     22 C28        -15.2370    19.0810    -8.2530 c          1 AU0       0.551000
     23 C29        -13.6950    19.1600    -8.3670 c6         1 AU0       0.014000
     24 C3         -12.3070    19.3240   -13.2920 ca         1 AU0       0.001000
     25 C4         -11.6020    19.2360   -12.0740 ca         1 AU0      -0.226900
     26 C5         -11.3860    20.4090   -11.3180 ca         1 AU0       0.235100
     27 C7          -9.0740    22.2090   -10.1990 c3         1 AU0      -0.111600
     28 C8          -9.6480    20.9000    -8.0770 c3         1 AU0      -0.111600
     29 C9         -11.9620    21.6250   -11.7370 ca         1 AU0      -0.258000
     30 N1         -10.9090    17.4620   -10.3410 n          1 AU0      -0.392300
     31 N2         -13.0270    18.3480    -9.4430 n          1 AU0      -0.416800
     32 N3         -15.8880    18.1620    -9.0410 ns         1 AU0      -0.508900
     33 O1         -10.6020    20.3280   -10.1830 os         1 AU0      -0.356100
     34 O3         -15.8670    19.7840    -7.4780 o          1 AU0      -0.559000
     35 Cl          -4.1420    14.2310   -12.8990 cl         1 AU0      -0.172000
     36 Cl1         -5.2210    17.0680   -14.0110 cl         1 AU0      -0.169000
     37 Cl2         -4.6130    18.0180    -7.8890 cl         1 AU0      -0.172000
     38 Cl3         -5.9610    19.7600   -10.2490 cl         1 AU0      -0.181000
     39 H2         -14.3310    24.1440   -14.5630 h1         1 AU0       0.045033
     40 H3         -13.4080    22.8570   -15.3650 h1         1 AU0       0.045033
     41 H4         -14.8970    22.4630   -14.4650 h1         1 AU0       0.045033
     42 H          -10.5770    15.1320   -12.0000 h1         1 AU0       0.070700
     43 H15         -8.6440    13.6570   -11.0640 ha         1 AU0       0.115000
     44 H16         -6.3050    12.9600   -11.5120 ha         1 AU0       0.131000
     45 H17         -7.9420    17.3360   -13.2340 ha         1 AU0       0.148000
     46 H1         -10.4610    15.4860    -9.6570 h1         1 AU0       0.078700
     47 H5         -13.4140    20.5670   -14.6450 ha         1 AU0       0.126000
     48 H18         -8.5670    15.1580    -8.2390 ha         1 AU0       0.117000
     49 H19         -6.3800    15.8420    -7.2940 ha         1 AU0       0.133000
     50 H20         -8.4560    18.5640   -10.9100 ha         1 AU0       0.146000
     51 H22        -13.4430    17.2660   -11.2510 h1         1 AU0       0.068200
     52 H21        -14.1440    18.8970   -11.1600 h1         1 AU0       0.068200
     53 H23        -15.9480    17.2730   -10.9470 h1         1 AU0       0.047700
     54 H24        -15.0620    16.3600    -9.7050 h1         1 AU0       0.047700
     55 H26        -13.3130    18.8680    -7.3800 h1         1 AU0       0.088200
     56 H27        -13.4470    20.2190    -8.5190 h1         1 AU0       0.088200
     57 H6         -12.4500    18.4360   -13.9060 ha         1 AU0       0.128000
     58 H7         -11.0090    22.1370    -9.1900 h1         1 AU0       0.044700
     59 H8          -8.6460    23.0140    -9.5900 hc         1 AU0       0.052700
     60 H9          -8.2650    21.5250   -10.4780 hc         1 AU0       0.052700
     61 H10         -9.4710    22.6580   -11.1150 hc         1 AU0       0.052700
     62 H13         -9.2850    21.7100    -7.4340 hc         1 AU0       0.052700
     63 H12        -10.4480    20.3740    -7.5440 hc         1 AU0       0.052700
     64 H11         -8.8230    20.1970    -8.2450 hc         1 AU0       0.052700
     65 H14        -11.8430    22.5350   -11.1610 ha         1 AU0       0.138000
     66 H25        -16.8940    18.1110    -8.9300 hn         1 AU0       0.319500
     67 C25        -11.7290    17.8150    -9.2540 c          1 AU0       0.694100
     68 O          -13.2310    22.9180   -13.2770 os         1 AU0      -0.337100
     69 C6         -10.1720    21.4620    -9.4110 c3         1 AU0       0.179300
     70 O2         -11.3200    17.6350    -8.1150 o          1 AU0      -0.581100
@<TRIPOS>BOND
     1     1     4 2   
     2     1     5 1   
     3     2    39 1   
     4     2    40 1   
     5     2    41 1   
     6     2    68 1   
     7     3    14 ar  
     8     3    29 ar  
     9     3    68 1   
    10     4    25 1   
    11     4    30 1   
    12     5     6 1   
    13     5    12 1   
    14     5    42 1   
    15     6     7 ar  
    16     6    11 ar  
    17     7     8 ar  
    18     7    43 1   
    19     8     9 ar  
    20     8    44 1   
    21     9    10 ar  
    22     9    35 1   
    23    10    11 ar  
    24    10    36 1   
    25    11    45 1   
    26    12    13 1   
    27    12    30 1   
    28    12    46 1   
    29    13    15 ar  
    30    13    19 ar  
    31    14    24 ar  
    32    14    47 1   
    33    15    16 ar  
    34    15    48 1   
    35    16    17 ar  
    36    16    49 1   
    37    17    18 ar  
    38    17    37 1   
    39    18    19 ar  
    40    18    38 1   
    41    19    50 1   
    42    20    21 1   
    43    20    31 1   
    44    20    51 1   
    45    20    52 1   
    46    21    32 1   
    47    21    53 1   
    48    21    54 1   
    49    22    23 1   
    50    22    32 1   
    51    22    34 2   
    52    23    31 1   
    53    23    55 1   
    54    23    56 1   
    55    24    25 ar  
    56    24    57 1   
    57    25    26 ar  
    58    26    29 ar  
    59    26    33 1   
    60    27    59 1   
    61    27    60 1   
    62    27    61 1   
    63    27    69 1   
    64    28    62 1   
    65    28    63 1   
    66    28    64 1   
    67    28    69 1   
    68    29    65 1   
    69    30    67 1   
    70    31    67 1   
    71    32    66 1   
    72    33    69 1   
    73    58    69 1   
    74    67    70 2   
@<TRIPOS>SUBSTRUCTURE
     1 AU0         1 TEMP              0 ****  ****    0 ROOT
