@<TRIPOS>MOLECULE
AU2
   47    50     1     0     0
SMALL
bcc


@<TRIPOS>ATOM
      1 C1          -1.7740     0.9990    -1.1260 ca         1 AU2      -0.104000
      2 C2          -1.0730    -0.1900    -0.9920 ca         1 AU2      -0.176300
      3 C3           0.3770    -0.2570    -1.3660 c3         1 AU2       0.190100
      4 C4           2.6880     0.0030    -0.4720 c3         1 AU2       0.127800
      5 C5           3.4860     0.4130     0.7540 c3         1 AU2      -0.104700
      6 C6           4.9440     0.2350     0.5080 cc         1 AU2       0.369800
      7 C7           7.0990     0.6540     0.5960 ca         1 AU2      -0.062200
      8 N1           5.8650     1.1180     0.9670 na         1 AU2      -0.251300
      9 N2           5.4780    -0.7660    -0.1360 nd         1 AU2      -0.573100
     10 C9           9.4190     0.3850     0.2580 ca         1 AU2      -0.086000
     11 C8           8.3870     1.1400     0.7880 ca         1 AU2      -0.133000
     12 CL1         -3.7930    -2.6440     0.5440 cl         1 AU2      -0.041900
     13 C14         -3.0360    -1.2340    -0.1030 ca         1 AU2       0.036400
     14 C15         -3.7730    -0.0560    -0.2220 cp         1 AU2       0.045000
     15 C16         -5.1960     0.0150     0.1820 cp         1 AU2      -0.086000
     16 C21         -5.5470     0.5820     1.4020 ca         1 AU2      -0.095000
     17 C20         -6.8800     0.6490     1.7800 ca         1 AU2      -0.121000
     18 C19         -7.8690     0.1540     0.9390 ca         1 AU2      -0.099000
     19 C18         -7.5200    -0.4100    -0.2810 ca         1 AU2      -0.121000
     20 C17         -6.1870    -0.4820    -0.6580 ca         1 AU2      -0.095000
     21 C           -3.1040     1.0500    -0.7430 ca         1 AU2       0.036400
     22 CL          -3.9580     2.5390    -0.9360 cl         1 AU2      -0.041900
     23 C13         -1.7060    -1.3140    -0.4800 ca         1 AU2      -0.104000
     24 N            1.2310     0.0840    -0.1880 ny         1 AU2      -0.772000
     25 C12          6.8340    -0.5370    -0.1000 ca         1 AU2       0.063400
     26 C11          7.8880    -1.2830    -0.6260 ca         1 AU2      -0.061000
     27 C10          9.1740    -0.8090    -0.4370 ca         1 AU2      -0.137000
     28 H1          -1.2930     1.8790    -1.5330 ha         1 AU2       0.154000
     29 H2           0.6650    -1.2560    -1.6860 hx         1 AU2       0.106700
     30 H3           0.6270     0.4520    -2.1530 hx         1 AU2       0.106700
     31 H4           2.8880     0.6620    -1.3140 hx         1 AU2       0.117700
     32 H5           2.9010    -1.0220    -0.7650 hx         1 AU2       0.117700
     33 H6           3.2790     1.4530     1.0110 hc         1 AU2       0.070200
     34 H7           3.1910    -0.1940     1.6160 hc         1 AU2       0.070200
     35 H8           5.6700     1.9640     1.4800 hn         1 AU2       0.310700
     36 H10         10.4400     0.7240     0.3820 ha         1 AU2       0.147000
     37 H11          8.5780     2.0610     1.3240 ha         1 AU2       0.147000
     38 H12         -4.7770     0.9680     2.0590 ha         1 AU2       0.134000
     39 H13         -7.1480     1.0900     2.7320 ha         1 AU2       0.145000
     40 H14         -8.9090     0.2090     1.2340 ha         1 AU2       0.145000
     41 H15         -8.2870    -0.7960    -0.9400 ha         1 AU2       0.145000
     42 H16         -5.9150    -0.9220    -1.6090 ha         1 AU2       0.134000
     43 H17         -1.1690    -2.2480    -0.3790 ha         1 AU2       0.154000
     44 H18          0.9960     1.0240     0.1360 hn         1 AU2       0.445300
     45 H19          1.0010    -0.5400     0.5880 hn         1 AU2       0.445300
     46 H20          7.7020    -2.2030    -1.1650 ha         1 AU2       0.153000
     47 H21         10.0120    -1.3690    -0.8320 ha         1 AU2       0.148000
@<TRIPOS>BOND
     1     1     2 ar  
     2     1    21 ar  
     3     1    28 1   
     4     2     3 1   
     5     2    23 ar  
     6     3    24 1   
     7     3    29 1   
     8     3    30 1   
     9     4     5 1   
    10     4    24 1   
    11     4    31 1   
    12     4    32 1   
    13     5     6 1   
    14     5    33 1   
    15     5    34 1   
    16     6     8 1   
    17     6     9 2   
    18     7     8 1   
    19     7    11 ar  
    20     7    25 ar  
    21     8    35 1   
    22     9    25 1   
    23    10    11 ar  
    24    10    27 ar  
    25    10    36 1   
    26    11    37 1   
    27    12    13 1   
    28    13    14 ar  
    29    13    23 ar  
    30    14    15 1   
    31    14    21 ar  
    32    15    16 ar  
    33    15    20 ar  
    34    16    17 ar  
    35    16    38 1   
    36    17    18 ar  
    37    17    39 1   
    38    18    19 ar  
    39    18    40 1   
    40    19    20 ar  
    41    19    41 1   
    42    20    42 1   
    43    21    22 1   
    44    23    43 1   
    45    24    44 1   
    46    24    45 1   
    47    25    26 ar  
    48    26    27 ar  
    49    26    46 1   
    50    27    47 1   
@<TRIPOS>SUBSTRUCTURE
     1 AU2         1 TEMP              0 ****  ****    0 ROOT
