@<TRIPOS>MOLECULE
AU2
   47    50     1     0     0
SMALL
No Charge or Current Charge


@<TRIPOS>ATOM
      1 C1          -1.7620     1.1260    -1.0120 ca         1 AU2      -0.086000
      2 C2          -1.0960    -0.1090    -1.0970 ca         1 AU2      -0.176300
      3 C3           0.3470    -0.1690    -1.5460 c3         1 AU2       0.161900
      4 C4           2.7330    -0.0860    -0.5400 c3         1 AU2       0.099600
      5 C5           3.4940     0.0460     0.7880 c3         1 AU2      -0.104700
      6 C6           4.9820     0.0020     0.5930 cc         1 AU2       0.369800
      7 C7           7.0870     0.6700     0.4820 ca         1 AU2      -0.062200
      8 N1           5.8250     1.0980     0.7550 na         1 AU2      -0.301600
      9 N2           5.6720    -1.0960     0.2270 nd         1 AU2      -0.573100
     10 C9           9.4670     0.6450     0.1620 ca         1 AU2      -0.068000
     11 C8           8.3010     1.3660     0.4960 ca         1 AU2      -0.115000
     12 Cl1         -3.9080    -2.7520     0.1060 cl         1 AU2      -0.133500
     13 C14         -3.1220    -1.2340    -0.3320 ca         1 AU2       0.128000
     14 C15         -3.8090     0.0060    -0.2400 cp         1 AU2       0.045000
     15 C16         -5.2330     0.0660     0.2100 cp         1 AU2      -0.086000
     16 C21         -5.5840     0.7060     1.4230 ca         1 AU2      -0.077000
     17 C20         -6.9230     0.7630     1.8470 ca         1 AU2      -0.103000
     18 C19         -7.9340     0.1800     1.0640 ca         1 AU2      -0.081000
     19 C18         -7.6040    -0.4600    -0.1420 ca         1 AU2      -0.103000
     20 C17         -6.2650    -0.5160    -0.5650 ca         1 AU2      -0.077000
     21 C           -3.1010     1.1870    -0.5890 ca         1 AU2       0.128000
     22 Cl          -3.8760     2.7710    -0.5320 cl         1 AU2      -0.133500
     23 C13         -1.7830    -1.2870    -0.7550 ca         1 AU2      -0.086000
     24 N            1.2230    -0.0460    -0.3160 ny         1 AU2      -0.826000
     25 C12          6.9910    -0.6550     0.1640 ca         1 AU2       0.063400
     26 C11          8.1360    -1.3930    -0.1710 ca         1 AU2      -0.043000
     27 C10          9.3850    -0.7290    -0.1700 ca         1 AU2      -0.119000
     28 H1          -1.2450     2.0460    -1.2770 ha         1 AU2       0.136000
     29 H2           0.5610    -1.1160    -2.0510 hx         1 AU2       0.106700
     30 H3           0.5760     0.6470    -2.2390 hx         1 AU2       0.106700
     31 H4           3.0220     0.7310    -1.2100 hx         1 AU2       0.117700
     32 H5           3.0040    -1.0320    -1.0210 hx         1 AU2       0.117700
     33 H6           3.2110     0.9850     1.2780 hc         1 AU2       0.070200
     34 H7           3.1940    -0.7660     1.4600 hc         1 AU2       0.070200
     35 H8           5.5420     2.0320     1.0250 hn         1 AU2       0.361000
     36 H10         10.4330     1.1470     0.1610 ha         1 AU2       0.129000
     37 H11          8.3460     2.4220     0.7540 ha         1 AU2       0.129000
     38 H12         -4.8100     1.1590     2.0390 ha         1 AU2       0.116000
     39 H13         -7.1770     1.2590     2.7820 ha         1 AU2       0.127000
     40 H14         -8.9710     0.2240     1.3920 ha         1 AU2       0.127000
     41 H15         -8.3850    -0.9120    -0.7500 ha         1 AU2       0.127000
     42 H16         -6.0210    -1.0120    -1.5020 ha         1 AU2       0.116000
     43 H17         -1.2790    -2.2500    -0.8130 ha         1 AU2       0.136000
     44 H18          0.9630     0.8270     0.1900 hn         1 AU2       0.500500
     45 H19          0.9480    -0.7880     0.3620 hn         1 AU2       0.500500
     46 H20          8.0630    -2.4470    -0.4250 ha         1 AU2       0.135000
     47 H21         10.2880    -1.2790    -0.4260 ha         1 AU2       0.130000
@<TRIPOS>BOND
     1     1     2 ar  
     2     1    21 ar  
     3     1    28 1   
     4     2     3 1   
     5     2    23 ar  
     6     3    24 1   
     7     3    29 1   
     8     3    30 1   
     9     4     5 1   
    10     4    24 1   
    11     4    31 1   
    12     4    32 1   
    13     5     6 1   
    14     5    33 1   
    15     5    34 1   
    16     6     8 1   
    17     6     9 2   
    18     7     8 1   
    19     7    11 ar  
    20     7    25 ar  
    21     8    35 1   
    22     9    25 1   
    23    10    11 ar  
    24    10    27 ar  
    25    10    36 1   
    26    11    37 1   
    27    12    13 1   
    28    13    14 ar  
    29    13    23 ar  
    30    14    15 1   
    31    14    21 ar  
    32    15    16 ar  
    33    15    20 ar  
    34    16    17 ar  
    35    16    38 1   
    36    17    18 ar  
    37    17    39 1   
    38    18    19 ar  
    39    18    40 1   
    40    19    20 ar  
    41    19    41 1   
    42    20    42 1   
    43    21    22 1   
    44    23    43 1   
    45    24    44 1   
    46    24    45 1   
    47    25    26 ar  
    48    26    27 ar  
    49    26    46 1   
    50    27    47 1   
@<TRIPOS>SUBSTRUCTURE
     1 AU2         1 TEMP              0 ****  ****    0 ROOT
