@<TRIPOS>MOLECULE
AU4
   43    44     1     0     0
SMALL
bcc


@<TRIPOS>ATOM
      1 C14         -5.1380    -2.0140    -0.8690 c3         1 AU4       0.214100
      2 N15         -4.8150    -1.0710     0.1750 nh         1 AU4      -0.684500
      3 C15         -5.4230    -1.2570     1.4710 c3         1 AU4       0.214100
      4 C12         -3.6590    -0.3340     0.0790 ca         1 AU4       0.191100
      5 C7          -2.9010    -0.3070    -1.1090 ca         1 AU4      -0.205750
      6 C8          -1.7520     0.4560    -1.2030 ca         1 AU4      -0.076750
      7 C11         -3.1800     0.4370     1.1500 ca         1 AU4      -0.205750
      8 C10         -2.0270     1.2010     1.0290 ca         1 AU4      -0.076750
      9 C9          -1.2830     1.2270    -0.1420 ca         1 AU4      -0.147300
     10 C13          0.0040     2.0210    -0.2960 c3         1 AU4       0.273100
     11 N8           0.2090     3.0950     0.6660 n8         1 AU4      -0.880800
     12 C4           1.2140     1.1100    -0.2850 ca         1 AU4      -0.147300
     13 C5           2.2530     1.2850    -1.1910 ca         1 AU4      -0.076750
     14 C6           3.3890     0.4910    -1.1720 ca         1 AU4      -0.205750
     15 C1           3.5380    -0.5360    -0.2220 ca         1 AU4       0.191100
     16 C2           2.4920    -0.7000     0.7060 ca         1 AU4      -0.205750
     17 C3           1.3630     0.1000     0.6600 ca         1 AU4      -0.076750
     18 N16          4.6450    -1.3480    -0.2080 nh         1 AU4      -0.684500
     19 C17          4.8490    -2.2430     0.9050 c3         1 AU4       0.214100
     20 C16          5.7780    -1.0140    -1.0390 c3         1 AU4       0.214100
     21 H141        -4.3810    -2.7990    -0.9900 h1         1 AU4       0.033950
     22 H142        -6.0840    -2.4960    -0.6370 h1         1 AU4       0.033950
     23 H143        -5.2600    -1.5180    -1.8330 h1         1 AU4       0.033950
     24 H151        -4.7720    -1.7810     2.1800 h1         1 AU4       0.033950
     25 H152        -5.7060    -0.3030     1.9210 h1         1 AU4       0.033950
     26 H153        -6.3350    -1.8390     1.3600 h1         1 AU4       0.033950
     27 H7          -3.2050    -0.8850    -1.9710 ha         1 AU4       0.128250
     28 H8          -1.2000     0.4440    -2.1370 ha         1 AU4       0.124750
     29 H11         -3.7060     0.4570     2.0950 ha         1 AU4       0.128250
     30 H10         -1.7140     1.7860     1.8860 ha         1 AU4       0.124750
     31 H13         -0.0290     2.4930    -1.2840 h1         1 AU4       0.064700
     32 HN81        -0.6180     3.6810     0.7060 hn         1 AU4       0.339800
     33 HN82         0.3300     2.7140     1.5970 hn         1 AU4       0.339800
     34 H5           2.1800     2.0660    -1.9400 ha         1 AU4       0.124750
     35 H6           4.1570     0.6770    -1.9090 ha         1 AU4       0.128250
     36 H2           2.5460    -1.4640     1.4680 ha         1 AU4       0.128250
     37 H3           0.5780    -0.0800     1.3870 ha         1 AU4       0.124750
     38 H171         4.0340    -2.9640     0.9960 h1         1 AU4       0.033950
     39 H172         5.7620    -2.8120     0.7480 h1         1 AU4       0.033950
     40 H173         4.9410    -1.7210     1.8650 h1         1 AU4       0.033950
     41 H161         6.2160    -0.0400    -0.7960 h1         1 AU4       0.033950
     42 H162         6.5490    -1.7690    -0.9100 h1         1 AU4       0.033950
     43 H163         5.5090    -1.0050    -2.0970 h1         1 AU4       0.033950
@<TRIPOS>BOND
     1     1     2 1   
     2     1    21 1   
     3     1    22 1   
     4     1    23 1   
     5     2     3 1   
     6     2     4 1   
     7     3    24 1   
     8     3    25 1   
     9     3    26 1   
    10     4     5 ar  
    11     4     7 ar  
    12     5     6 ar  
    13     5    27 1   
    14     6     9 ar  
    15     6    28 1   
    16     7     8 ar  
    17     7    29 1   
    18     8     9 ar  
    19     8    30 1   
    20     9    10 1   
    21    10    11 1   
    22    10    12 1   
    23    10    31 1   
    24    11    32 1   
    25    11    33 1   
    26    12    13 ar  
    27    12    17 ar  
    28    13    14 ar  
    29    13    34 1   
    30    14    15 ar  
    31    14    35 1   
    32    15    16 ar  
    33    15    18 1   
    34    16    17 ar  
    35    16    36 1   
    36    17    37 1   
    37    18    19 1   
    38    18    20 1   
    39    19    38 1   
    40    19    39 1   
    41    19    40 1   
    42    20    41 1   
    43    20    42 1   
    44    20    43 1   
@<TRIPOS>SUBSTRUCTURE
     1 AU4         1 TEMP              0 ****  ****    0 ROOT
