@<TRIPOS>MOLECULE
AU4
   43    44     1     0     0
SMALL
No Charge or Current Charge


@<TRIPOS>ATOM
      1 C14         -5.4620    -1.6830    -1.2040 c3         1 AU4       0.214100
      2 N15         -4.7870    -1.1870     0.0190 nh         1 AU4      -0.822900
      3 C15         -5.3970    -1.5520     1.3190 c3         1 AU4       0.214100
      4 C12         -3.6080    -0.4000    -0.0530 ca         1 AU4       0.329500
      5 C7          -3.3460     0.4060    -1.1780 ca         1 AU4      -0.187750
      6 C8          -2.1790     1.1870    -1.2520 ca         1 AU4      -0.058750
      7 C11         -2.6720    -0.4060     1.0000 ca         1 AU4      -0.187750
      8 C10         -1.5030     0.3720     0.9310 ca         1 AU4      -0.058750
      9 C9          -1.2470     1.1770    -0.1970 ca         1 AU4      -0.147300
     10 C13          0.0190     2.0230    -0.2920 c3         1 AU4       0.273100
     11 N8          -0.0340     3.1200     0.6830 n8         1 AU4      -0.991200
     12 C4           1.2890     1.1770    -0.1620 ca         1 AU4      -0.147300
     13 C5           1.8460     0.6020    -1.3210 ca         1 AU4      -0.058750
     14 C6           3.0030    -0.1920    -1.2420 ca         1 AU4      -0.187750
     15 C1           3.6310    -0.4330    -0.0040 ca         1 AU4       0.329500
     16 C2           3.0700     0.1390     1.1550 ca         1 AU4      -0.187750
     17 C3           1.9130     0.9350     1.0810 ca         1 AU4      -0.058750
     18 N16          4.7990    -1.2360     0.0740 nh         1 AU4      -0.822900
     19 C17          5.1370    -1.9940     1.3020 c3         1 AU4       0.214100
     20 C16          5.7350    -1.3550    -1.0690 c3         1 AU4       0.214100
     21 H141        -4.7230    -1.9470    -1.9720 h1         1 AU4       0.033950
     22 H142        -6.0500    -2.5850    -0.9870 h1         1 AU4       0.033950
     23 H143        -6.1360    -0.9170    -1.6090 h1         1 AU4       0.033950
     24 H151        -4.9120    -2.4450     1.7350 h1         1 AU4       0.033950
     25 H152        -5.2960    -0.7270     2.0380 h1         1 AU4       0.033950
     26 H153        -6.4690    -1.7600     1.2030 h1         1 AU4       0.033950
     27 H7          -4.0510     0.4430    -2.0030 ha         1 AU4       0.110250
     28 H8          -2.0030     1.8010    -2.1320 ha         1 AU4       0.106750
     29 H11         -2.8360    -1.0240     1.8770 ha         1 AU4       0.110250
     30 H10         -0.7960     0.3430     1.7570 ha         1 AU4       0.106750
     31 H13          0.0420     2.4920    -1.2870 h1         1 AU4       0.064700
     32 HN81        -0.9170     3.6220     0.5440 hn         1 AU4       0.395000
     33 HN82        -0.1390     2.7080     1.6130 hn         1 AU4       0.395000
     34 H5           1.3760     0.7650    -2.2890 ha         1 AU4       0.106750
     35 H6           3.4000    -0.6290    -2.1530 ha         1 AU4       0.110250
     36 H2           3.5320    -0.0190     2.1230 ha         1 AU4       0.110250
     37 H3           1.5080     1.3590     1.9960 ha         1 AU4       0.106750
     38 H171         4.2260    -2.3790     1.7810 h1         1 AU4       0.033950
     39 H172         5.7750    -2.8560     1.0660 h1         1 AU4       0.033950
     40 H173         5.6680    -1.3520     2.0170 h1         1 AU4       0.033950
     41 H161         5.8120    -0.4000    -1.6050 h1         1 AU4       0.033950
     42 H162         6.7420    -1.6230    -0.7230 h1         1 AU4       0.033950
     43 H163         5.3900    -2.1270    -1.7700 h1         1 AU4       0.033950
@<TRIPOS>BOND
     1     1     2 1   
     2     1    21 1   
     3     1    22 1   
     4     1    23 1   
     5     2     3 1   
     6     2     4 1   
     7     3    24 1   
     8     3    25 1   
     9     3    26 1   
    10     4     5 ar  
    11     4     7 ar  
    12     5     6 ar  
    13     5    27 1   
    14     6     9 ar  
    15     6    28 1   
    16     7     8 ar  
    17     7    29 1   
    18     8     9 ar  
    19     8    30 1   
    20     9    10 1   
    21    10    11 1   
    22    10    12 1   
    23    10    31 1   
    24    11    32 1   
    25    11    33 1   
    26    12    13 ar  
    27    12    17 ar  
    28    13    14 ar  
    29    13    34 1   
    30    14    15 ar  
    31    14    35 1   
    32    15    16 ar  
    33    15    18 1   
    34    16    17 ar  
    35    16    36 1   
    36    17    37 1   
    37    18    19 1   
    38    18    20 1   
    39    19    38 1   
    40    19    39 1   
    41    19    40 1   
    42    20    41 1   
    43    20    42 1   
    44    20    43 1   
@<TRIPOS>SUBSTRUCTURE
     1 AU4         1 TEMP              0 ****  ****    0 ROOT
