@<TRIPOS>MOLECULE
AU5
   65    69     1     0     0
SMALL
No Charge or Current Charge


@<TRIPOS>ATOM
      1 O           -6.9550     1.9620    -0.2590 o          1 AU5      -0.551000
      2 C4          -5.7720     1.6840    -0.3930 c          1 AU5       0.599000
      3 N2          -4.7940     2.4840    -1.0100 n          1 AU5      -0.282000
      4 C10         -5.1120     3.6920    -1.7900 c3         1 AU5       0.108300
      5 C2          -3.5600     1.7820    -1.0730 ca         1 AU5      -0.162400
      6 C3          -2.2460     2.2080    -1.3050 ca         1 AU5       0.155900
      7 N           -1.2190     1.3710    -1.0240 nb         1 AU5      -0.246000
      8 N3          -5.1060     0.4950    -0.0140 n          1 AU5      -0.371300
      9 C5          -5.7070    -0.6500     0.7290 c5         1 AU5       0.126700
     10 C9          -6.6910    -1.3760    -0.2350 c5         1 AU5      -0.089400
     11 C8          -7.7340    -1.9220     0.7700 c5         1 AU5      -0.079400
     12 C7          -8.0060    -0.6450     1.6090 c5         1 AU5      -0.079400
     13 C6          -6.5650    -0.1540     1.9430 c5         1 AU5      -0.089400
     14 C1          -3.7470     0.5830    -0.4150 ca         1 AU5       0.234900
     15 N1          -2.7530    -0.2570    -0.0920 nb         1 AU5      -0.254000
     16 C           -1.5250     0.1820    -0.4430 ca         1 AU5       0.396900
     17 N4          -0.5000    -0.7120    -0.1640 nu         1 AU5      -0.918900
     18 C11          0.9090    -0.6990    -0.2520 ca         1 AU5       0.246000
     19 C16          1.6030    -1.9380    -0.3010 ca         1 AU5       0.132100
     20 O1           0.8600    -3.1120    -0.2690 os         1 AU5      -0.356100
     21 C17          1.4700    -4.4150    -0.3170 c3         1 AU5       0.152900
     22 C15          3.0130    -1.9570    -0.3820 ca         1 AU5      -0.216000
     23 C14          3.7450    -0.7620    -0.3970 ca         1 AU5       0.166100
     24 C13          3.0620     0.4700    -0.3370 ca         1 AU5      -0.213000
     25 C12          1.6580     0.4980    -0.2580 ca         1 AU5      -0.058000
     26 O2           5.1200    -0.8640    -0.4850 os         1 AU5      -0.351100
     27 C18          5.9950     0.2630    -0.2610 c6         1 AU5       0.177300
     28 C22          7.4240    -0.1040    -0.7170 c6         1 AU5      -0.092400
     29 C21          8.4070     1.0520    -0.4260 c6         1 AU5       0.165300
     30 N5           8.4000     1.4190     1.0150 n3         1 AU5      -0.712600
     31 C23          9.4130     2.4470     1.3380 c3         1 AU5       0.151100
     32 C20          7.0390     1.8020     1.4780 c6         1 AU5       0.165300
     33 C19          6.0200     0.6660     1.2350 c6         1 AU5      -0.092400
     34 H101        -5.7950     4.3330    -1.2190 h1         1 AU5       0.051033
     35 H102        -4.1940     4.2520    -2.0060 h1         1 AU5       0.051033
     36 H103        -5.5910     3.4040    -2.7340 h1         1 AU5       0.051033
     37 H3          -2.0070     3.1930    -1.7010 h4         1 AU5       0.029100
     38 H5          -4.9320    -1.3450     1.0810 h1         1 AU5       0.080700
     39 H91C        -7.1620    -0.6980    -0.9570 hc         1 AU5       0.054950
     40 H92C        -6.1990    -2.1700    -0.8080 hc         1 AU5       0.054950
     41 H61C        -6.2060    -0.6250     2.8650 hc         1 AU5       0.054950
     42 H62C        -6.5200     0.9260     2.1200 hc         1 AU5       0.054950
     43 H81C        -8.6360    -2.2970     0.2740 hc         1 AU5       0.048700
     44 H82C        -7.3290    -2.7370     1.3830 hc         1 AU5       0.048700
     45 H71C        -8.5620     0.1010     1.0290 hc         1 AU5       0.048700
     46 H72C        -8.5930    -0.8540     2.5100 hc         1 AU5       0.048700
     47 H4          -0.8570    -1.6450     0.0510 hn         1 AU5       0.523000
     48 H12          1.1620     1.4600    -0.1840 ha         1 AU5       0.142000
     49 H15          3.5630    -2.8920    -0.4290 ha         1 AU5       0.132000
     50 H171         2.0400    -4.5450    -1.2460 h1         1 AU5       0.043367
     51 H172         2.1460    -4.5610     0.5360 h1         1 AU5       0.043367
     52 H173         0.7010    -5.1960    -0.2790 h1         1 AU5       0.043367
     53 H13          3.5940     1.4160    -0.3500 ha         1 AU5       0.121000
     54 H18          5.6580     1.1110    -0.8740 h1         1 AU5       0.042700
     55 H221         7.7610    -1.0120    -0.2000 hc         1 AU5       0.061700
     56 H222         7.4270    -0.3290    -1.7910 hc         1 AU5       0.061700
     57 H191         5.0270     0.9930     1.5680 hc         1 AU5       0.061700
     58 H192         6.2880    -0.2030     1.8500 hc         1 AU5       0.061700
     59 H211         9.4170     0.7420    -0.7350 h1         1 AU5       0.032950
     60 H212         8.1340     1.9220    -1.0430 h1         1 AU5       0.032950
     61 H231         9.1990     3.3880     0.8140 h1         1 AU5       0.031700
     62 H232         9.4290     2.6500     2.4180 h1         1 AU5       0.031700
     63 H233        10.4160     2.1090     1.0440 h1         1 AU5       0.031700
     64 H201         7.0550     2.0370     2.5530 h1         1 AU5       0.032950
     65 H202         6.6990     2.7090     0.9550 h1         1 AU5       0.032950
@<TRIPOS>BOND
     1     1     2 2   
     2     2     3 1   
     3     2     8 1   
     4     3     4 1   
     5     3     5 1   
     6     4    34 1   
     7     4    35 1   
     8     4    36 1   
     9     5     6 ar  
    10     5    14 ar  
    11     6     7 ar  
    12     6    37 1   
    13     7    16 ar  
    14     8     9 1   
    15     8    14 1   
    16     9    10 1   
    17     9    13 1   
    18     9    38 1   
    19    10    11 1   
    20    10    39 1   
    21    10    40 1   
    22    11    12 1   
    23    11    43 1   
    24    11    44 1   
    25    12    13 1   
    26    12    45 1   
    27    12    46 1   
    28    13    41 1   
    29    13    42 1   
    30    14    15 ar  
    31    15    16 ar  
    32    16    17 1   
    33    17    18 1   
    34    17    47 1   
    35    18    19 ar  
    36    18    25 ar  
    37    19    20 1   
    38    19    22 ar  
    39    20    21 1   
    40    21    50 1   
    41    21    51 1   
    42    21    52 1   
    43    22    23 ar  
    44    22    49 1   
    45    23    24 ar  
    46    23    26 1   
    47    24    25 ar  
    48    24    53 1   
    49    25    48 1   
    50    26    27 1   
    51    27    28 1   
    52    27    33 1   
    53    27    54 1   
    54    28    29 1   
    55    28    55 1   
    56    28    56 1   
    57    29    30 1   
    58    29    59 1   
    59    29    60 1   
    60    30    31 1   
    61    30    32 1   
    62    31    61 1   
    63    31    62 1   
    64    31    63 1   
    65    32    33 1   
    66    32    64 1   
    67    32    65 1   
    68    33    57 1   
    69    33    58 1   
@<TRIPOS>SUBSTRUCTURE
     1 AU5         1 TEMP              0 ****  ****    0 ROOT
