@<TRIPOS>MOLECULE
AU5
   65    69     1     0     0
SMALL
abcg2


@<TRIPOS>ATOM
      1 O           -6.8270     1.8390    -0.5860 o          1 AU5      -0.551000
      2 C4          -5.6310     1.6400    -0.5170 c          1 AU5       0.599000
      3 N2          -4.6280     2.4850    -0.9180 n          1 AU5      -0.282000
      4 C10         -4.8250     3.7790    -1.5200 c3         1 AU5       0.108300
      5 C2          -3.4080     1.8880    -0.6860 ca         1 AU5      -0.162400
      6 C3          -2.0950     2.2200    -0.8730 ca         1 AU5       0.155900
      7 N           -1.1290     1.3620    -0.5170 nb         1 AU5      -0.246000
      8 N3          -5.0150     0.4990    -0.0100 n          1 AU5      -0.371300
      9 C5          -5.7110    -0.6620     0.5210 c5         1 AU5       0.126700
     10 C9          -6.5100    -1.4350    -0.5440 c5         1 AU5      -0.089400
     11 C8          -7.7240    -1.9690     0.2130 c5         1 AU5      -0.079400
     12 C7          -8.0720    -0.8260     1.1640 c5         1 AU5      -0.079400
     13 C6          -6.7090    -0.3430     1.6630 c5         1 AU5      -0.089400
     14 C1          -3.6640     0.6350    -0.1120 ca         1 AU5       0.234900
     15 N1          -2.7430    -0.2200     0.2420 nb         1 AU5      -0.254000
     16 C           -1.4830     0.1990     0.0100 ca         1 AU5       0.396900
     17 N4          -0.5300    -0.7050     0.3680 nu         1 AU5      -0.918900
     18 C11          0.8550    -0.6460     0.2060 ca         1 AU5       0.246000
     19 C16          1.5410    -1.8740     0.0770 ca         1 AU5       0.132100
     20 O1           0.7660    -2.9750     0.0980 os         1 AU5      -0.356100
     21 C17          1.3810    -4.2450     0.0050 c3         1 AU5       0.152900
     22 C15          2.9170    -1.9010    -0.0510 ca         1 AU5      -0.216000
     23 C14          3.6530    -0.7120    -0.0670 ca         1 AU5       0.166100
     24 C13          2.9920     0.4990     0.0650 ca         1 AU5      -0.213000
     25 C12          1.6060     0.5180     0.2070 ca         1 AU5      -0.058000
     26 O2           4.9850    -0.8670    -0.2290 os         1 AU5      -0.351100
     27 C18          5.8540     0.2580    -0.1840 c6         1 AU5       0.177300
     28 C22          7.1660    -0.1650    -0.8200 c6         1 AU5      -0.092400
     29 C21          8.1730     0.9740    -0.7460 c6         1 AU5       0.165300
     30 N5           8.3930     1.3940     0.6250 n3         1 AU5      -0.712600
     31 C23          9.4090     2.4190     0.7010 c3         1 AU5       0.151100
     32 C20          7.1560     1.8390     1.2380 c6         1 AU5       0.165300
     33 C19          6.1080     0.7340     1.2380 c6         1 AU5      -0.092400
     34 H101        -5.8850     4.0150    -1.5140 h1         1 AU5       0.051033
     35 H102        -4.2940     4.5460    -0.9580 h1         1 AU5       0.051033
     36 H103        -4.4710     3.7840    -2.5510 h1         1 AU5       0.051033
     37 H3          -1.7830     3.1640    -1.3040 h4         1 AU5       0.029100
     38 H5          -4.9170    -1.2980     0.9100 h1         1 AU5       0.080700
     39 H91C        -6.8390    -0.7630    -1.3390 hc         1 AU5       0.054950
     40 H92C        -5.9090    -2.2180    -1.0090 hc         1 AU5       0.054950
     41 H61C        -6.4130    -0.9050     2.5500 hc         1 AU5       0.054950
     42 H62C        -6.7040     0.7090     1.9440 hc         1 AU5       0.054950
     43 H81C        -8.5450    -2.2410    -0.4530 hc         1 AU5       0.048700
     44 H82C        -7.4550    -2.8630     0.7820 hc         1 AU5       0.048700
     45 H71C        -8.5720    -0.0280     0.6120 hc         1 AU5       0.048700
     46 H72C        -8.7320    -1.1300     1.9780 hc         1 AU5       0.048700
     47 H4          -0.9040    -1.5880     0.6770 hn         1 AU5       0.523000
     48 H12          1.1090     1.4690     0.3160 ha         1 AU5       0.142000
     49 H15          3.4500    -2.8370    -0.1590 ha         1 AU5       0.132000
     50 H171         1.9100    -4.3690    -0.9430 h1         1 AU5       0.043367
     51 H172         2.0810    -4.4180     0.8260 h1         1 AU5       0.043367
     52 H173         0.5820    -4.9790     0.0610 h1         1 AU5       0.043367
     53 H13          3.5200     1.4420     0.0670 ha         1 AU5       0.121000
     54 H18          5.4320     1.0810    -0.7790 h1         1 AU5       0.042700
     55 H221         7.5620    -1.0380    -0.2920 hc         1 AU5       0.061700
     56 H222         7.0130    -0.4470    -1.8630 hc         1 AU5       0.061700
     57 H191         5.1940     1.1070     1.7050 hc         1 AU5       0.061700
     58 H192         6.4640    -0.1090     1.8390 hc         1 AU5       0.061700
     59 H211         9.1240     0.6450    -1.1710 h1         1 AU5       0.032950
     60 H212         7.8220     1.8140    -1.3730 h1         1 AU5       0.032950
     61 H231         9.1270     3.3480     0.1800 h1         1 AU5       0.031700
     62 H232         9.6130     2.6710     1.7430 h1         1 AU5       0.031700
     63 H233        10.3390     2.0590     0.2580 h1         1 AU5       0.031700
     64 H201         7.3610     2.1430     2.2670 h1         1 AU5       0.032950
     65 H202         6.7510     2.7290     0.7220 h1         1 AU5       0.032950
@<TRIPOS>BOND
     1     1     2 2   
     2     2     3 1   
     3     2     8 1   
     4     3     4 1   
     5     3     5 1   
     6     4    34 1   
     7     4    35 1   
     8     4    36 1   
     9     5     6 ar  
    10     5    14 ar  
    11     6     7 ar  
    12     6    37 1   
    13     7    16 ar  
    14     8     9 1   
    15     8    14 1   
    16     9    10 1   
    17     9    13 1   
    18     9    38 1   
    19    10    11 1   
    20    10    39 1   
    21    10    40 1   
    22    11    12 1   
    23    11    43 1   
    24    11    44 1   
    25    12    13 1   
    26    12    45 1   
    27    12    46 1   
    28    13    41 1   
    29    13    42 1   
    30    14    15 ar  
    31    15    16 ar  
    32    16    17 1   
    33    17    18 1   
    34    17    47 1   
    35    18    19 ar  
    36    18    25 ar  
    37    19    20 1   
    38    19    22 ar  
    39    20    21 1   
    40    21    50 1   
    41    21    51 1   
    42    21    52 1   
    43    22    23 ar  
    44    22    49 1   
    45    23    24 ar  
    46    23    26 1   
    47    24    25 ar  
    48    24    53 1   
    49    25    48 1   
    50    26    27 1   
    51    27    28 1   
    52    27    33 1   
    53    27    54 1   
    54    28    29 1   
    55    28    55 1   
    56    28    56 1   
    57    29    30 1   
    58    29    59 1   
    59    29    60 1   
    60    30    31 1   
    61    30    32 1   
    62    31    61 1   
    63    31    62 1   
    64    31    63 1   
    65    32    33 1   
    66    32    64 1   
    67    32    65 1   
    68    33    57 1   
    69    33    58 1   
@<TRIPOS>SUBSTRUCTURE
     1 AU5         1 TEMP              0 ****  ****    0 ROOT
