@<TRIPOS>MOLECULE
AU6
   33    34     1     0     0
SMALL
No Charge or Current Charge


@<TRIPOS>ATOM
      1 OAB         -6.1570    -1.4640     0.3770 o          1 AU6      -0.716000
      2 CAO         -4.9340    -1.4860     0.3700 c          1 AU6       0.711600
      3 OAD         -4.2910    -2.5130     0.5410 o          1 AU6      -0.716000
      4 CAT         -4.1810    -0.1830     0.1400 ca         1 AU6      -0.119600
      5 CAL         -2.7640    -0.1580     0.1240 ca         1 AU6      -0.081000
      6 CAG         -4.8820     1.0280    -0.0620 ca         1 AU6      -0.097000
      7 CAE         -4.1860     2.2280    -0.2740 ca         1 AU6      -0.129000
      8 CAF         -2.7850     2.2380    -0.2870 ca         1 AU6      -0.183000
      9 CAS         -2.0600     1.0500    -0.0890 ca         1 AU6      -0.069000
     10 NAN         -0.6390     1.1440    -0.1180 ns         1 AU6      -0.159000
     11 CAP          0.3700     0.2010     0.0370 c          1 AU6       0.655100
     12 OAC          0.1770    -0.9910     0.2460 o          1 AU6      -0.586100
     13 NAM          1.6240     0.7860    -0.0740 ns         1 AU6      -0.175000
     14 CAR          2.9410     0.2550     0.0050 ca         1 AU6       0.007000
     15 CAJ          4.0130     1.1550    -0.1450 ca         1 AU6      -0.148500
     16 CAH          5.3430     0.7070    -0.0800 ca         1 AU6      -0.085500
     17 CAQ          5.6230    -0.6530     0.1380 ca         1 AU6      -0.117300
     18 CAA          7.0620    -1.1410     0.2050 c3         1 AU6      -0.034800
     19 CAI          4.5570    -1.5590     0.2850 ca         1 AU6      -0.085500
     20 CAK          3.2260    -1.1110     0.2200 ca         1 AU6      -0.148500
     21 H2          -2.2280    -1.0880     0.2790 ha         1 AU6       0.153000
     22 H3          -5.9700     1.0430    -0.0550 ha         1 AU6       0.129000
     23 H4          -4.7370     3.1540    -0.4280 ha         1 AU6       0.086000
     24 H5          -2.2590     3.1760    -0.4530 ha         1 AU6       0.079000
     25 H6          -0.3030     2.0830    -0.2830 hn         1 AU6       0.128000
     26 H7           1.6000     1.7820    -0.2450 hn         1 AU6       0.139000
     27 H8           3.8160     2.2120    -0.3140 ha         1 AU6       0.127000
     28 H9           6.1570     1.4200    -0.2000 ha         1 AU6       0.104500
     29 H10          7.7310    -0.3630     0.5930 hc         1 AU6       0.034033
     30 H11          7.1580    -2.0140     0.8630 hc         1 AU6       0.034033
     31 H12          7.4230    -1.4290    -0.7890 hc         1 AU6       0.034033
     32 H13          4.7600    -2.6150     0.4500 ha         1 AU6       0.104500
     33 H14          2.4350    -1.8440     0.3390 ha         1 AU6       0.127000
@<TRIPOS>BOND
     1     1     2 1   
     2     2     3 1   
     3     2     4 1   
     4     4     5 ar  
     5     4     6 ar  
     6     5     9 ar  
     7     5    21 1   
     8     6     7 ar  
     9     6    22 1   
    10     7     8 ar  
    11     7    23 1   
    12     8     9 ar  
    13     8    24 1   
    14     9    10 1   
    15    10    11 1   
    16    10    25 1   
    17    11    12 2   
    18    11    13 1   
    19    13    14 1   
    20    13    26 1   
    21    14    15 ar  
    22    14    20 ar  
    23    15    16 ar  
    24    15    27 1   
    25    16    17 ar  
    26    16    28 1   
    27    17    18 1   
    28    17    19 ar  
    29    18    29 1   
    30    18    30 1   
    31    18    31 1   
    32    19    20 ar  
    33    19    32 1   
    34    20    33 1   
@<TRIPOS>SUBSTRUCTURE
     1 AU6         1 TEMP              0 ****  ****    0 ROOT
