@<TRIPOS>MOLECULE
AU6
   33    34     1     0     0
SMALL
bcc


@<TRIPOS>ATOM
      1 OAB         -5.8220    -1.6940    -0.2010 o          1 AU6      -0.821300
      2 CAO         -4.5920    -1.6140    -0.3860 c          1 AU6       0.922200
      3 OAD         -3.8330    -2.5270    -0.7610 o          1 AU6      -0.821300
      4 CAT         -3.9510    -0.2540    -0.1240 ca         1 AU6      -0.119600
      5 CAL         -2.5830    -0.0830    -0.3130 ca         1 AU6      -0.099000
      6 CAG         -4.7240     0.8280     0.2890 ca         1 AU6      -0.115000
      7 CAE         -4.1310     2.0620     0.5090 ca         1 AU6      -0.147000
      8 CAF         -2.7660     2.2260     0.3370 ca         1 AU6      -0.201000
      9 CAS         -1.9810     1.1500    -0.0750 ca         1 AU6       0.023600
     10 NAN         -0.6130     1.3800    -0.2860 ns         1 AU6      -0.485100
     11 CAP          0.3970     0.5070     0.0220 c          1 AU6       0.789100
     12 OAC          0.2110    -0.6080     0.4740 o          1 AU6      -0.586100
     13 NAM          1.6360     1.0300    -0.2380 ns         1 AU6      -0.501100
     14 CAR          2.8700     0.3930    -0.0700 ca         1 AU6       0.099600
     15 CAJ          3.9320     0.8310    -0.8630 ca         1 AU6      -0.166500
     16 CAH          5.1940     0.2750    -0.7290 ca         1 AU6      -0.103500
     17 CAQ          5.4440    -0.7400     0.1910 ca         1 AU6      -0.117300
     18 CAA          6.8160    -1.3280     0.3520 c3         1 AU6      -0.034800
     19 CAI          4.3770    -1.1670     0.9740 ca         1 AU6      -0.103500
     20 CAK          3.1080    -0.6150     0.8630 ca         1 AU6      -0.166500
     21 H2          -2.0000    -0.9220    -0.6610 ha         1 AU6       0.171000
     22 H3          -5.7880     0.7020     0.4310 ha         1 AU6       0.147000
     23 H4          -4.7310     2.9060     0.8250 ha         1 AU6       0.104000
     24 H5          -2.3060     3.1900     0.5250 ha         1 AU6       0.097000
     25 H6          -0.3610     2.3400    -0.4640 hn         1 AU6       0.294500
     26 H7           1.6730     1.8960    -0.7540 hn         1 AU6       0.305500
     27 H8           3.7700     1.6120    -1.5960 ha         1 AU6       0.145000
     28 H9           5.9940     0.6380    -1.3640 ha         1 AU6       0.122500
     29 H10          7.4110    -0.7510     1.0640 hc         1 AU6       0.034033
     30 H11          6.7710    -2.3510     0.7250 hc         1 AU6       0.034033
     31 H12          7.3620    -1.3380    -0.5910 hc         1 AU6       0.034033
     32 H13          4.5320    -1.9540     1.7030 ha         1 AU6       0.122500
     33 H14          2.3210    -0.9730     1.5070 ha         1 AU6       0.145000
@<TRIPOS>BOND
     1     1     2 1   
     2     2     3 1   
     3     2     4 1   
     4     4     5 ar  
     5     4     6 ar  
     6     5     9 ar  
     7     5    21 1   
     8     6     7 ar  
     9     6    22 1   
    10     7     8 ar  
    11     7    23 1   
    12     8     9 ar  
    13     8    24 1   
    14     9    10 1   
    15    10    11 1   
    16    10    25 1   
    17    11    12 2   
    18    11    13 1   
    19    13    14 1   
    20    13    26 1   
    21    14    15 ar  
    22    14    20 ar  
    23    15    16 ar  
    24    15    27 1   
    25    16    17 ar  
    26    16    28 1   
    27    17    18 1   
    28    17    19 ar  
    29    18    29 1   
    30    18    30 1   
    31    18    31 1   
    32    19    20 ar  
    33    19    32 1   
    34    20    33 1   
@<TRIPOS>SUBSTRUCTURE
     1 AU6         1 TEMP              0 ****  ****    0 ROOT
