@<TRIPOS>MOLECULE
AU7
   54    58     1     0     0
SMALL
abcg2


@<TRIPOS>ATOM
      1 C4         -57.8040     4.8660    41.6460 ca         1 AU7      -0.008300
      2 C14        -57.8620     2.4520    39.1390 ca         1 AU7       0.116100
      3 C5         -57.6410     6.2340    41.8700 ca         1 AU7      -0.110000
      4 C6         -58.6910     7.1310    41.7420 ca         1 AU7      -0.096000
      5 C11        -56.4440     3.1400    43.0750 cx         1 AU7      -0.128900
      6 C7         -59.9450     6.6690    41.3810 ca         1 AU7      -0.106000
      7 C8         -60.1080     5.3140    41.1340 ca         1 AU7       0.129000
      8 C10        -56.6210     3.9670    41.8280 cx         1 AU7      -0.074400
      9 C12        -55.5220     4.2960    42.8000 cx         1 AU7      -0.128900
     10 C3         -59.0690     4.3830    41.2410 ca         1 AU7      -0.091300
     11 C1         -59.7970     2.1680    42.2150 c3         1 AU7      -0.084100
     12 C15        -56.7800     1.6510    38.6990 ca         1 AU7      -0.149000
     13 C16        -56.2640     1.8210    37.4460 ca         1 AU7      -0.052000
     14 C17        -56.7900     2.8020    36.5720 ca         1 AU7       0.217000
     15 C18        -57.8650     3.6220    37.0170 ca         1 AU7      -0.025000
     16 C19        -58.3950     3.4170    38.3170 ca         1 AU7      -0.178000
     17 C2         -59.3750     2.9180    40.9610 c3         1 AU7       0.223600
     18 C20        -58.3660     4.6240    36.1330 ca         1 AU7      -0.045300
     19 C21        -57.8140     4.7100    34.8600 ca         1 AU7      -0.032800
     20 C22        -56.7560     3.8210    34.5240 ca         1 AU7       0.345900
     21 C24        -58.3190     5.6470    33.8550 ce         1 AU7      -0.243200
     22 C25        -57.6310     6.1430    32.8220 cf         1 AU7      -0.205200
     23 C26        -58.2180     7.1070    31.8180 c          1 AU7       0.685200
     24 C29        -59.4540     5.5400    36.5860 cx         1 AU7      -0.078400
     25 C30        -59.2560     6.4460    37.7780 cx         1 AU7      -0.125900
     26 C31        -59.3570     7.0300    36.4010 cx         1 AU7      -0.125900
     27 N23        -56.2520     2.9180    35.3270 nb         1 AU7      -0.673000
     28 O13        -58.2790     2.1840    40.4030 os         1 AU7      -0.357100
     29 O27        -59.4360     7.4090    31.9170 o          1 AU7      -0.722000
     30 O28        -57.4140     7.5420    30.9470 o          1 AU7      -0.722000
     31 CL9        -61.7270     4.8030    40.6620 cl         1 AU7      -0.224000
     32 H1         -56.6640     6.6010    42.1510 ha         1 AU7       0.117000
     33 H2         -58.5350     8.1860    41.9230 ha         1 AU7       0.118000
     34 H3         -57.1720     3.2720    43.8650 hc         1 AU7       0.069450
     35 H4         -56.0730     2.1290    42.9640 hc         1 AU7       0.069450
     36 H5         -60.7840     7.3420    41.2770 ha         1 AU7       0.130000
     37 H6         -56.2850     3.4820    40.9220 hc         1 AU7       0.106700
     38 H7         -54.5070     4.0830    42.4920 hc         1 AU7       0.069450
     39 H8         -55.6260     5.1710    43.4270 hc         1 AU7       0.069450
     40 H9         -60.6580     2.6600    42.6670 hc         1 AU7       0.047033
     41 H10        -60.0730     1.1440    41.9590 hc         1 AU7       0.047033
     42 H11        -58.9860     2.1480    42.9410 hc         1 AU7       0.047033
     43 H12        -56.3800     0.9060    39.3760 ha         1 AU7       0.115000
     44 H13        -55.4430     1.2100    37.0940 ha         1 AU7       0.123000
     45 H14        -59.2110     4.0350    38.6450 ha         1 AU7       0.128000
     46 H15        -60.1910     2.8770    40.2390 h1         1 AU7       0.062700
     47 H16        -56.3360     3.8690    33.5250 h4         1 AU7       0.028100
     48 H17        -59.3460     5.9730    33.9640 ha         1 AU7       0.202000
     49 H18        -56.5860     5.8930    32.6720 ha         1 AU7       0.146000
     50 H19        -60.4510     5.1190    36.4960 hc         1 AU7       0.080700
     51 H20        -58.2840     6.4390    38.2530 hc         1 AU7       0.073200
     52 H21        -60.0870     6.5690    38.4580 hc         1 AU7       0.073200
     53 H22        -58.4500     7.4170    35.9560 hc         1 AU7       0.073200
     54 H23        -60.2570     7.5650    36.1260 hc         1 AU7       0.073200
@<TRIPOS>BOND
     1     1     3 ar  
     2     1     8 1   
     3     1    10 ar  
     4     2    12 ar  
     5     2    16 ar  
     6     2    28 1   
     7     3     4 ar  
     8     3    32 1   
     9     4     6 ar  
    10     4    33 1   
    11     5     8 1   
    12     5     9 1   
    13     5    34 1   
    14     5    35 1   
    15     6     7 ar  
    16     6    36 1   
    17     7    10 ar  
    18     7    31 1   
    19     8     9 1   
    20     8    37 1   
    21     9    38 1   
    22     9    39 1   
    23    10    17 1   
    24    11    17 1   
    25    11    40 1   
    26    11    41 1   
    27    11    42 1   
    28    12    13 ar  
    29    12    43 1   
    30    13    14 ar  
    31    13    44 1   
    32    14    15 ar  
    33    14    27 ar  
    34    15    16 ar  
    35    15    18 ar  
    36    16    45 1   
    37    17    28 1   
    38    17    46 1   
    39    18    19 ar  
    40    18    24 1   
    41    19    20 ar  
    42    19    21 1   
    43    20    27 ar  
    44    20    47 1   
    45    21    22 2   
    46    21    48 1   
    47    22    23 1   
    48    22    49 1   
    49    23    29 1   
    50    23    30 1   
    51    24    25 1   
    52    24    26 1   
    53    24    50 1   
    54    25    26 1   
    55    25    51 1   
    56    25    52 1   
    57    26    53 1   
    58    26    54 1   
@<TRIPOS>SUBSTRUCTURE
     1 AU7         1 TEMP              0 ****  ****    0 ROOT
