@<TRIPOS>MOLECULE
AU7
   54    58     1     0     0
SMALL
No Charge or Current Charge


@<TRIPOS>ATOM
      1 C4         -57.7600     4.8550    41.6790 ca         1 AU7      -0.008300
      2 C14        -57.8290     2.4190    39.1440 ca         1 AU7       0.116100
      3 C5         -57.5350     6.2400    41.8420 ca         1 AU7      -0.110000
      4 C6         -58.5640     7.1710    41.6620 ca         1 AU7      -0.096000
      5 C11        -56.4840     3.0590    43.1520 cx         1 AU7      -0.128900
      6 C7         -59.8430     6.7280    41.3140 ca         1 AU7      -0.106000
      7 C8         -60.0890     5.3610    41.1200 ca         1 AU7       0.129000
      8 C10        -56.5840     3.9350    41.9230 cx         1 AU7      -0.074400
      9 C12        -55.5310     4.2100    42.9790 cx         1 AU7      -0.128900
     10 C3         -59.0560     4.3970    41.2760 ca         1 AU7      -0.091300
     11 C1         -59.8500     2.1540    42.2650 c3         1 AU7      -0.084100
     12 C15        -56.7280     1.6670    38.7190 ca         1 AU7      -0.149000
     13 C16        -56.1880     1.8660    37.4400 ca         1 AU7      -0.052000
     14 C17        -56.7280     2.8260    36.5630 ca         1 AU7       0.217000
     15 C18        -57.8350     3.6120    36.9930 ca         1 AU7      -0.025000
     16 C19        -58.3870     3.3840    38.2790 ca         1 AU7      -0.178000
     17 C2         -59.4040     2.9100    41.0000 c3         1 AU7       0.223600
     18 C20        -58.3660     4.6010    36.1170 ca         1 AU7      -0.045300
     19 C21        -57.8030     4.7050    34.8180 ca         1 AU7      -0.032800
     20 C22        -56.7120     3.8720    34.4920 ca         1 AU7       0.345900
     21 C24        -58.3470     5.6410    33.7830 ce         1 AU7      -0.243200
     22 C25        -57.6830     6.2230    32.7360 cf         1 AU7      -0.205200
     23 C26        -58.2890     7.1470    31.7290 c          1 AU7       0.685200
     24 C29        -59.4900     5.5240    36.5450 cx         1 AU7      -0.078400
     25 C30        -59.3800     6.4250    37.7600 cx         1 AU7      -0.125900
     26 C31        -59.3990     7.0300    36.3840 cx         1 AU7      -0.125900
     27 N23        -56.1780     2.9650    35.3370 nb         1 AU7      -0.673000
     28 O13        -58.3110     2.1750    40.4160 os         1 AU7      -0.357100
     29 O27        -59.4770     7.4200    31.8140 o          1 AU7      -0.722000
     30 O28        -57.5570     7.5870    30.8570 o          1 AU7      -0.722000
     31 Cl9        -61.7400     4.9090    40.6790 cl         1 AU7      -0.224000
     32 H1         -56.5480     6.6060    42.1110 ha         1 AU7       0.117000
     33 H2         -58.3720     8.2330    41.7990 ha         1 AU7       0.118000
     34 H3         -57.2390     3.1640    43.9270 hc         1 AU7       0.069450
     35 H4         -56.1000     2.0500    43.0220 hc         1 AU7       0.069450
     36 H5         -60.6470     7.4470    41.1840 ha         1 AU7       0.130000
     37 H6         -56.1850     3.5380    40.9930 hc         1 AU7       0.106700
     38 H7         -54.4970     3.9790    42.7340 hc         1 AU7       0.069450
     39 H8         -55.6600     5.0600    43.6450 hc         1 AU7       0.069450
     40 H9         -60.7040     2.6590    42.7300 hc         1 AU7       0.047033
     41 H10        -60.1570     1.1330    42.0100 hc         1 AU7       0.047033
     42 H11        -59.0460     2.0930    43.0040 hc         1 AU7       0.047033
     43 H12        -56.2940     0.9230    39.3810 ha         1 AU7       0.115000
     44 H13        -55.3400     1.2670    37.1200 ha         1 AU7       0.123000
     45 H14        -59.2540     3.9460    38.5990 ha         1 AU7       0.128000
     46 H15        -60.2460     2.8550    40.3010 h1         1 AU7       0.062700
     47 H16        -56.2530     3.9200    33.5050 h4         1 AU7       0.028100
     48 H17        -59.4090     5.8690    33.8920 ha         1 AU7       0.202000
     49 H18        -56.6230     6.0240    32.6010 ha         1 AU7       0.146000
     50 H19        -60.4660     5.0780    36.3650 hc         1 AU7       0.080700
     51 H20        -58.4390     6.4360    38.3050 hc         1 AU7       0.073200
     52 H21        -60.2660     6.5510    38.3780 hc         1 AU7       0.073200
     53 H22        -58.4690     7.4530    36.0120 hc         1 AU7       0.073200
     54 H23        -60.2960     7.5600    36.0740 hc         1 AU7       0.073200
@<TRIPOS>BOND
     1     1     3 ar  
     2     1     8 1   
     3     1    10 ar  
     4     2    12 ar  
     5     2    16 ar  
     6     2    28 1   
     7     3     4 ar  
     8     3    32 1   
     9     4     6 ar  
    10     4    33 1   
    11     5     8 1   
    12     5     9 1   
    13     5    34 1   
    14     5    35 1   
    15     6     7 ar  
    16     6    36 1   
    17     7    10 ar  
    18     7    31 1   
    19     8     9 1   
    20     8    37 1   
    21     9    38 1   
    22     9    39 1   
    23    10    17 1   
    24    11    17 1   
    25    11    40 1   
    26    11    41 1   
    27    11    42 1   
    28    12    13 ar  
    29    12    43 1   
    30    13    14 ar  
    31    13    44 1   
    32    14    15 ar  
    33    14    27 ar  
    34    15    16 ar  
    35    15    18 ar  
    36    16    45 1   
    37    17    28 1   
    38    17    46 1   
    39    18    19 ar  
    40    18    24 1   
    41    19    20 ar  
    42    19    21 1   
    43    20    27 ar  
    44    20    47 1   
    45    21    22 2   
    46    21    48 1   
    47    22    23 1   
    48    22    49 1   
    49    23    29 1   
    50    23    30 1   
    51    24    25 1   
    52    24    26 1   
    53    24    50 1   
    54    25    26 1   
    55    25    51 1   
    56    25    52 1   
    57    26    53 1   
    58    26    54 1   
@<TRIPOS>SUBSTRUCTURE
     1 AU7         1 TEMP              0 ****  ****    0 ROOT
