@<TRIPOS>MOLECULE
AU8
   28    29     1     0     0
SMALL
No Charge or Current Charge


@<TRIPOS>ATOM
      1 C1           2.7740     0.0400     0.3210 ca         1 AU8      -0.181300
      2 C3           0.6610     1.2350     0.0690 ca         1 AU8       0.128500
      3 C4          -0.0650     0.0150     0.1020 cp         1 AU8       0.051000
      4 C5           0.6690    -1.1930     0.2470 ca         1 AU8       0.128500
      5 C6           2.0700    -1.1760     0.3560 ca         1 AU8      -0.083500
      6 C8          -2.3660     0.5790     0.9930 ca         1 AU8      -0.076500
      7 C9          -3.7680     0.5670     0.8850 ca         1 AU8      -0.103000
      8 C10         -4.3820    -0.0250    -0.2320 ca         1 AU8      -0.079000
      9 C11         -3.5930    -0.6040    -1.2400 ca         1 AU8      -0.103000
     10 C12         -2.1920    -0.5900    -1.1320 ca         1 AU8      -0.076500
     11 Cl1         -0.1450    -2.7560     0.3270 cl         1 AU8      -0.130000
     12 C            4.2830     0.0540     0.4350 c3         1 AU8       0.166900
     13 N            4.8180    -0.0480    -0.9600 nz         1 AU8      -0.976000
     14 Cl          -0.1600     2.7840    -0.1360 cl         1 AU8      -0.130000
     15 C2           2.0620     1.2440     0.1770 ca         1 AU8      -0.083500
     16 C7          -1.5550     0.0010    -0.0140 cp         1 AU8      -0.089000
     17 H1           2.6070    -2.1150     0.4720 ha         1 AU8       0.135500
     18 H3          -4.3770     1.0150     1.6670 ha         1 AU8       0.127500
     19 H4          -5.4670    -0.0350    -0.3160 ha         1 AU8       0.128000
     20 H5          -4.0670    -1.0620    -2.1060 ha         1 AU8       0.127500
     21 H6          -1.5910    -1.0390    -1.9200 ha         1 AU8       0.116000
     22 H7           4.6360     0.9810     0.9000 hx         1 AU8       0.108700
     23 H8           4.6420    -0.7920     1.0330 hx         1 AU8       0.108700
     24 H9           4.5110     0.7300    -1.5610 hn         1 AU8       0.510667
     25 H10          5.8490    -0.0480    -0.9980 hn         1 AU8       0.510667
     26 H11          4.5170    -0.9090    -1.4390 hn         1 AU8       0.510667
     27 H12          2.5930     2.1930     0.1460 ha         1 AU8       0.135500
     28 H2          -1.9020     1.0380     1.8630 ha         1 AU8       0.116000
@<TRIPOS>BOND
     1     1     5 ar  
     2     1    12 1   
     3     1    15 ar  
     4     2     3 ar  
     5     2    14 1   
     6     2    15 ar  
     7     3     4 ar  
     8     3    16 1   
     9     4     5 ar  
    10     4    11 1   
    11     5    17 1   
    12     6     7 ar  
    13     6    16 ar  
    14     6    28 1   
    15     7     8 ar  
    16     7    18 1   
    17     8     9 ar  
    18     8    19 1   
    19     9    10 ar  
    20     9    20 1   
    21    10    16 ar  
    22    10    21 1   
    23    12    13 1   
    24    12    22 1   
    25    12    23 1   
    26    13    24 1   
    27    13    25 1   
    28    13    26 1   
    29    15    27 1   
@<TRIPOS>SUBSTRUCTURE
     1 AU8         1 TEMP              0 ****  ****    0 ROOT
