@<TRIPOS>MOLECULE
AU8
   28    29     1     0     0
SMALL
abcg2


@<TRIPOS>ATOM
      1 C1           2.7210     0.0660     0.3050 ca         1 AU8      -0.181300
      2 C3           0.6480     1.2060    -0.0630 ca         1 AU8       0.128500
      3 C4          -0.0810     0.0270     0.0840 cp         1 AU8       0.051000
      4 C5           0.6480    -1.1310     0.3440 ca         1 AU8       0.128500
      5 C6           2.0290    -1.1270     0.4560 ca         1 AU8      -0.083500
      6 C8          -2.3400     0.4010     1.0600 ca         1 AU8      -0.076500
      7 C9          -3.7240     0.3790     0.9640 ca         1 AU8      -0.103000
      8 C10         -4.3340    -0.0340    -0.2130 ca         1 AU8      -0.079000
      9 C11         -3.5550    -0.4260    -1.2940 ca         1 AU8      -0.103000
     10 C12         -2.1710    -0.4080    -1.1990 ca         1 AU8      -0.076500
     11 CL1         -0.1890    -2.6270     0.5560 cl         1 AU8      -0.130000
     12 C            4.2160     0.0860     0.4040 c3         1 AU8       0.166900
     13 N            4.8330    -0.1130    -0.9380 nz         1 AU8      -0.976000
     14 CL          -0.1880     2.6810    -0.3920 cl         1 AU8      -0.130000
     15 C2           2.0280     1.2400     0.0440 ca         1 AU8      -0.083500
     16 C7          -1.5580     0.0070    -0.0210 cp         1 AU8      -0.089000
     17 H1           2.5580    -2.0460     0.6710 ha         1 AU8       0.135500
     18 H3          -4.3250     0.6840     1.8110 ha         1 AU8       0.127500
     19 H4          -5.4130    -0.0500    -0.2880 ha         1 AU8       0.128000
     20 H5          -4.0250    -0.7500    -2.2130 ha         1 AU8       0.127500
     21 H6          -1.5670    -0.7160    -2.0430 ha         1 AU8       0.116000
     22 H7           4.5840     1.0380     0.7800 hx         1 AU8       0.108700
     23 H8           4.5920    -0.7100     1.0420 hx         1 AU8       0.108700
     24 H9           4.5560     0.6120    -1.6000 hn         1 AU8       0.510667
     25 H10          5.8510    -0.0920    -0.8820 hn         1 AU8       0.510667
     26 H11          4.5760    -1.0110    -1.3470 hn         1 AU8       0.510667
     27 H12          2.5590     2.1760    -0.0690 ha         1 AU8       0.135500
     28 H2          -1.8660     0.7250     1.9780 ha         1 AU8       0.116000
@<TRIPOS>BOND
     1     1     5 ar  
     2     1    12 1   
     3     1    15 ar  
     4     2     3 ar  
     5     2    14 1   
     6     2    15 ar  
     7     3     4 ar  
     8     3    16 1   
     9     4     5 ar  
    10     4    11 1   
    11     5    17 1   
    12     6     7 ar  
    13     6    16 ar  
    14     6    28 1   
    15     7     8 ar  
    16     7    18 1   
    17     8     9 ar  
    18     8    19 1   
    19     9    10 ar  
    20     9    20 1   
    21    10    16 ar  
    22    10    21 1   
    23    12    13 1   
    24    12    22 1   
    25    12    23 1   
    26    13    24 1   
    27    13    25 1   
    28    13    26 1   
    29    15    27 1   
@<TRIPOS>SUBSTRUCTURE
     1 AU8         1 TEMP              0 ****  ****    0 ROOT
