@<TRIPOS>MOLECULE
AU9
   62    65     1     0     0
SMALL
abcg2


@<TRIPOS>ATOM
      1 C10         23.9700     5.1840    -0.4710 c3         1 AU9       0.149300
      2 N12         23.4340     4.0800    -2.6400 nc         1 AU9      -0.345000
      3 C17         19.7280     2.1310    -3.8460 c3         1 AU9       0.119900
      4 C20         23.8920     3.8660     7.8060 ca         1 AU9      -0.113500
      5 C21         24.1580     2.5070     7.9020 ca         1 AU9      -0.108000
      6 C22         24.6200     1.8180     6.7880 ca         1 AU9      -0.113500
      7 C24         17.3410     2.0450    -4.6110 ca         1 AU9      -0.110000
      8 C26         15.9120     0.2180    -3.9760 ca         1 AU9      -0.105000
      9 C28         18.1860     0.2520    -3.2460 ca         1 AU9      -0.050000
     10 C01         24.7690     4.5720     4.2030 cp         1 AU9      -0.009000
     11 C02         25.6380     5.6670     4.2200 ca         1 AU9      -0.133000
     12 C03         25.9120     6.3630     3.0590 ca         1 AU9      -0.084000
     13 C04         25.3330     5.9770     1.8570 ca         1 AU9      -0.192000
     14 C05         24.4660     4.8940     1.8420 ca         1 AU9       0.135100
     15 C06         24.1510     4.1840     3.0110 ca         1 AU9      -0.074300
     16 C07         23.1420     3.0730     2.9310 c3         1 AU9      -0.045800
     17 C08         24.5380     3.8470     5.4750 cp         1 AU9      -0.037000
     18 C11         23.1220     4.4960    -1.4710 cd         1 AU9       0.395300
     19 C14         21.3870     3.6280    -2.2840 cd         1 AU9       0.514300
     20 C18         18.3910     1.4560    -3.9130 ca         1 AU9      -0.119300
     21 C19         24.0850     4.5310     6.6030 ca         1 AU9      -0.096000
     22 C23         24.8080     2.4830     5.5850 ca         1 AU9      -0.096000
     23 C25         16.1030     1.4190    -4.6450 ca         1 AU9      -0.125000
     24 C27         16.9510    -0.3810    -3.2680 ca         1 AU9      -0.038300
     25 C29         16.6940    -1.6460    -2.4830 c3         1 AU9       0.234100
     26 C31         18.0390    -3.6470    -3.0160 c3         1 AU9       0.029500
     27 C32         18.4670    -4.8560    -2.1290 c          1 AU9       0.713000
     28 C35         19.0370    -3.4430    -4.1440 c3         1 AU9       0.170600
     29 N13         22.3030     3.5190    -3.1830 nc         1 AU9      -0.383000
     30 N30         17.8550    -2.4570    -2.2060 n7         1 AU9      -0.893400
     31 O09         23.8620     4.4390     0.7180 os         1 AU9      -0.335100
     32 O15         21.8300     4.2430    -1.1790 os         1 AU9      -0.250000
     33 O33         18.4390    -4.6850    -0.8940 o          1 AU9      -0.723000
     34 O34         18.7720    -5.9000    -2.7330 o          1 AU9      -0.723000
     35 O36         18.5260    -2.4950    -5.0600 oh         1 AU9      -0.679000
     36 S16         19.7480     3.0880    -2.2860 ss         1 AU9      -0.282300
     37 H1          24.9930     5.2160    -0.8570 h1         1 AU9       0.062700
     38 H2          23.6280     6.2160    -0.3300 h1         1 AU9       0.062700
     39 H3          20.5460     1.4130    -3.8150 h1         1 AU9       0.082700
     40 H4          19.8830     2.8150    -4.6790 h1         1 AU9       0.082700
     41 H5          23.5320     4.4110     8.6690 ha         1 AU9       0.112000
     42 H6          24.0090     1.9880     8.8400 ha         1 AU9       0.110000
     43 H7          24.8380     0.7600     6.8560 ha         1 AU9       0.112000
     44 H8          17.4950     2.9820    -5.1320 ha         1 AU9       0.100000
     45 H9          14.9410    -0.2640    -4.0100 ha         1 AU9       0.105000
     46 H10         19.0040    -0.2130    -2.7090 ha         1 AU9       0.145000
     47 H11         26.1110     5.9570     5.1490 ha         1 AU9       0.115000
     48 H12         26.5900     7.2060     3.0770 ha         1 AU9       0.110000
     49 H13         25.5730     6.5230     0.9540 ha         1 AU9       0.115000
     50 H14         23.5510     2.1850     2.4450 hc         1 AU9       0.053033
     51 H15         22.7950     2.7750     3.9170 hc         1 AU9       0.053033
     52 H16         22.2700     3.3780     2.3530 hc         1 AU9       0.053033
     53 H17         23.8680     5.5900     6.5330 ha         1 AU9       0.117000
     54 H18         25.1790     1.9390     4.7240 ha         1 AU9       0.117000
     55 H19         15.2860     1.8670    -5.1970 ha         1 AU9       0.100000
     56 H20         16.2550    -1.3370    -1.5280 h1         1 AU9       0.022700
     57 H21         15.9040    -2.2180    -2.9910 h1         1 AU9       0.022700
     58 H22         17.0830    -3.9470    -3.4820 h1         1 AU9       0.023700
     59 H23         19.2180    -4.4030    -4.6370 h1         1 AU9       0.026200
     60 H24         19.9910    -3.1090    -3.7130 h1         1 AU9       0.026200
     61 H25         17.8420    -2.7750    -1.2460 hn         1 AU9       0.459000
     62 H28         19.2130    -2.3050    -5.7050 ho         1 AU9       0.412000
@<TRIPOS>BOND
     1     1    18 1   
     2     1    31 1   
     3     1    37 1   
     4     1    38 1   
     5     2    18 2   
     6     2    29 1   
     7     3    20 1   
     8     3    36 1   
     9     3    39 1   
    10     3    40 1   
    11     4     5 ar  
    12     4    21 ar  
    13     4    41 1   
    14     5     6 ar  
    15     5    42 1   
    16     6    22 ar  
    17     6    43 1   
    18     7    20 ar  
    19     7    23 ar  
    20     7    44 1   
    21     8    23 ar  
    22     8    24 ar  
    23     8    45 1   
    24     9    20 ar  
    25     9    24 ar  
    26     9    46 1   
    27    10    11 ar  
    28    10    15 ar  
    29    10    17 1   
    30    11    12 ar  
    31    11    47 1   
    32    12    13 ar  
    33    12    48 1   
    34    13    14 ar  
    35    13    49 1   
    36    14    15 ar  
    37    14    31 1   
    38    15    16 1   
    39    16    50 1   
    40    16    51 1   
    41    16    52 1   
    42    17    21 ar  
    43    17    22 ar  
    44    18    32 1   
    45    19    29 2   
    46    19    32 1   
    47    19    36 1   
    48    21    53 1   
    49    22    54 1   
    50    23    55 1   
    51    24    25 1   
    52    25    30 1   
    53    25    56 1   
    54    25    57 1   
    55    26    27 1   
    56    26    28 1   
    57    26    30 1   
    58    26    58 1   
    59    27    33 1   
    60    27    34 1   
    61    28    35 1   
    62    28    59 1   
    63    28    60 1   
    64    30    61 1   
    65    35    62 1   
@<TRIPOS>SUBSTRUCTURE
     1 AU9         1 TEMP              0 ****  ****    0 ROOT
