@<TRIPOS>MOLECULE
AU9
   62    65     1     0     0
SMALL
No Charge or Current Charge


@<TRIPOS>ATOM
      1 C10         23.5050     5.3430    -0.0030 c3         1 AU9       0.149300
      2 N12         23.2200     3.7430    -1.9250 nc         1 AU9      -0.345000
      3 C17         19.7450     1.5940    -3.4310 c3         1 AU9       0.119900
      4 C20         25.1080     4.6980     8.4320 ca         1 AU9      -0.113500
      5 C21         25.6860     3.4200     8.5200 ca         1 AU9      -0.108000
      6 C22         26.0930     2.7540     7.3530 ca         1 AU9      -0.113500
      7 C24         17.6170     1.4940    -4.8200 ca         1 AU9      -0.110000
      8 C26         15.9970    -0.2990    -4.5260 ca         1 AU9      -0.105000
      9 C28         18.0140    -0.2480    -3.1690 ca         1 AU9      -0.050000
     10 C01         25.1510     5.3070     4.6580 cp         1 AU9      -0.009000
     11 C02         25.7140     6.5890     4.4590 ca         1 AU9      -0.133000
     12 C03         25.6030     7.2510     3.2290 ca         1 AU9      -0.084000
     13 C04         24.9250     6.6400     2.1670 ca         1 AU9      -0.192000
     14 C05         24.3400     5.3650     2.3350 ca         1 AU9       0.135100
     15 C06         24.4380     4.6970     3.5810 ca         1 AU9      -0.074300
     16 C07         23.7550     3.3360     3.7500 c3         1 AU9      -0.045800
     17 C08         25.3270     4.6460     5.9870 cp         1 AU9      -0.037000
     18 C11         22.7170     4.4160    -0.8970 cd         1 AU9       0.395300
     19 C14         21.1220     3.3560    -1.6830 cd         1 AU9       0.514300
     20 C18         18.4300     0.9320    -3.8160 ca         1 AU9      -0.119300
     21 C19         24.9340     5.3050     7.1770 ca         1 AU9      -0.096000
     22 C23         25.9190     3.3630     6.0980 ca         1 AU9      -0.096000
     23 C25         16.4050     0.8790    -5.1730 ca         1 AU9      -0.125000
     24 C27         16.7990    -0.8690    -3.5180 ca         1 AU9      -0.038300
     25 C29         16.3560    -2.1440    -2.8020 c3         1 AU9       0.234100
     26 C31         17.3010    -3.7430    -4.5370 c3         1 AU9       0.029500
     27 C32         15.9320    -4.2740    -5.1120 c          1 AU9       0.713000
     28 C35         18.3760    -4.8470    -4.7570 c3         1 AU9       0.170600
     29 N13         22.1570     3.0380    -2.4460 nc         1 AU9      -0.383000
     30 N30         17.2460    -3.2910    -3.0880 n7         1 AU9      -0.893400
     31 O09         23.6650     4.7420     1.3010 os         1 AU9      -0.335100
     32 O15         21.3920     4.2240    -0.6840 os         1 AU9      -0.250000
     33 O33         15.3390    -5.1500    -4.4920 o          1 AU9      -0.723000
     34 O34         15.4760    -3.7460    -6.1180 o          1 AU9      -0.723000
     35 O36         19.7060    -4.3510    -4.5130 oh         1 AU9      -0.679000
     36 S16         19.5090     2.6910    -1.9620 ss         1 AU9      -0.282300
     37 H1          24.4820     5.5350    -0.4630 h1         1 AU9       0.062700
     38 H2          22.9650     6.2950     0.0730 h1         1 AU9       0.062700
     39 H3          20.4930     0.8270    -3.1930 h1         1 AU9       0.082700
     40 H4          20.1250     2.1910    -4.2700 h1         1 AU9       0.082700
     41 H5          24.7960     5.2170     9.3350 ha         1 AU9       0.112000
     42 H6          25.8210     2.9500     9.4920 ha         1 AU9       0.110000
     43 H7          26.5480     1.7680     7.4200 ha         1 AU9       0.112000
     44 H8          17.9240     2.4070    -5.3250 ha         1 AU9       0.100000
     45 H9          15.0570    -0.7690    -4.8070 ha         1 AU9       0.105000
     46 H10         18.6350    -0.6900    -2.3920 ha         1 AU9       0.145000
     47 H11         26.2560     7.0680     5.2710 ha         1 AU9       0.115000
     48 H12         26.0510     8.2340     3.0990 ha         1 AU9       0.110000
     49 H13         24.8620     7.1740     1.2230 ha         1 AU9       0.115000
     50 H14         24.4160     2.5230     3.4270 hc         1 AU9       0.053033
     51 H15         23.4690     3.1450     4.7910 hc         1 AU9       0.053033
     52 H16         22.8310     3.2650     3.1650 hc         1 AU9       0.053033
     53 H17         24.4850     6.2940     7.1200 ha         1 AU9       0.117000
     54 H18         26.2500     2.8430     5.2030 ha         1 AU9       0.117000
     55 H19         15.7810     1.3160    -5.9500 ha         1 AU9       0.100000
     56 H20         16.3470    -1.9460    -1.7220 h1         1 AU9       0.022700
     57 H21         15.3230    -2.3840    -3.0890 h1         1 AU9       0.022700
     58 H22         17.5910    -2.8900    -5.1660 h1         1 AU9       0.023700
     59 H23         18.3020    -5.2070    -5.7920 h1         1 AU9       0.026200
     60 H24         18.1600    -5.7000    -4.0990 h1         1 AU9       0.026200
     61 H25         16.9030    -4.0880    -2.5330 hn         1 AU9       0.459000
     62 H28         20.3130    -5.1180    -4.5900 ho         1 AU9       0.412000
@<TRIPOS>BOND
     1     1    18 1   
     2     1    31 1   
     3     1    37 1   
     4     1    38 1   
     5     2    18 2   
     6     2    29 1   
     7     3    20 1   
     8     3    36 1   
     9     3    39 1   
    10     3    40 1   
    11     4     5 ar  
    12     4    21 ar  
    13     4    41 1   
    14     5     6 ar  
    15     5    42 1   
    16     6    22 ar  
    17     6    43 1   
    18     7    20 ar  
    19     7    23 ar  
    20     7    44 1   
    21     8    23 ar  
    22     8    24 ar  
    23     8    45 1   
    24     9    20 ar  
    25     9    24 ar  
    26     9    46 1   
    27    10    11 ar  
    28    10    15 ar  
    29    10    17 1   
    30    11    12 ar  
    31    11    47 1   
    32    12    13 ar  
    33    12    48 1   
    34    13    14 ar  
    35    13    49 1   
    36    14    15 ar  
    37    14    31 1   
    38    15    16 1   
    39    16    50 1   
    40    16    51 1   
    41    16    52 1   
    42    17    21 ar  
    43    17    22 ar  
    44    18    32 1   
    45    19    29 2   
    46    19    32 1   
    47    19    36 1   
    48    21    53 1   
    49    22    54 1   
    50    23    55 1   
    51    24    25 1   
    52    25    30 1   
    53    25    56 1   
    54    25    57 1   
    55    26    27 1   
    56    26    28 1   
    57    26    30 1   
    58    26    58 1   
    59    27    33 1   
    60    27    34 1   
    61    28    35 1   
    62    28    59 1   
    63    28    60 1   
    64    30    61 1   
    65    35    62 1   
@<TRIPOS>SUBSTRUCTURE
     1 AU9         1 TEMP              0 ****  ****    0 ROOT
