@<TRIPOS>MOLECULE
AUA
  108   108     1     0     0
SMALL
No Charge or Current Charge


@<TRIPOS>ATOM
      1 C18         -8.5390     1.5700    -0.4410 c          1 AUA       0.613100
      2 O19         -7.7640     2.5070    -0.5660 o          1 AUA      -0.591100
      3 C20        -10.0230     1.7740    -0.1640 c3         1 AUA      -0.180100
      4 N16         -8.1530     0.2500    -0.5390 ns         1 AUA      -0.494900
      5 C14         -6.7750    -0.2350    -0.8060 c3         1 AUA       0.048700
      6 C12         -5.8370    -0.0010     0.4260 c          1 AUA       0.585100
      7 O13         -6.2290     0.4340     1.5020 o          1 AUA      -0.587100
      8 C24         -6.1800     0.2870    -2.1530 c3         1 AUA      -0.077400
      9 C27         -7.1020     0.1470    -3.3990 c3         1 AUA      -0.056700
     10 C29         -6.4490     0.7920    -4.6430 c3         1 AUA      -0.089100
     11 C33         -7.4960    -1.3210    -3.6860 c3         1 AUA      -0.089100
     12 N10         -4.5100    -0.3310     0.2300 ns         1 AUA      -0.504900
     13 C8          -3.4260    -0.1700     1.2270 c3         1 AUA       0.031700
     14 C37         -2.1140     0.2720     0.5120 c          1 AUA       0.586100
     15 O38         -1.9880     0.2620    -0.7070 o          1 AUA      -0.603100
     16 C5          -3.2190    -1.4660     2.0560 c3         1 AUA      -0.079400
     17 C2          -4.4560    -1.9180     2.8570 c3         1 AUA       0.064600
     18 S1          -4.0510    -3.4090     3.8730 ss         1 AUA      -0.436000
     19 C99         -5.6880    -3.6910     4.6870 c3         1 AUA       0.042900
     20 N39         -1.0950     0.6890     1.3470 ns         1 AUA      -0.499900
     21 C41          0.1920     1.2410     0.8910 c3         1 AUA       0.077700
     22 C43          1.3680     0.2040     0.9340 c3         1 AUA       0.164300
     23 O45          1.6550    -0.1780     2.2880 oh         1 AUA      -0.656000
     24 C47          1.1850    -1.0780     0.0600 c5         1 AUA      -0.085700
     25 C49          2.5280    -1.8820    -0.1570 c5         1 AUA      -0.143700
     26 C51          2.0280    -3.3400    -0.3930 c5         1 AUA      -0.183400
     27 C54          1.0160    -3.4580     0.7350 c          1 AUA       0.574100
     28 C55          0.1830    -2.1860     0.5720 c5         1 AUA      -0.189400
     29 O58          1.1370    -4.1000     1.7700 o          1 AUA      -0.504100
     30 C59          3.2960    -1.3320    -1.3910 c          1 AUA       0.610100
     31 O60          2.9100    -1.3120    -2.5510 o          1 AUA      -0.611100
     32 C92          0.4750     2.5550     1.6770 c3         1 AUA      -0.089400
     33 C95          1.7270     3.3720     1.2420 c3         1 AUA      -0.058700
     34 C97          1.6680     3.8210    -0.2370 c3         1 AUA      -0.091600
     35 C98          1.9390     4.5880     2.1700 c3         1 AUA      -0.091600
     36 N61          4.5140    -0.8400    -0.9850 ns         1 AUA      -0.488900
     37 C63          5.4950    -0.1460    -1.8520 c3         1 AUA       0.032700
     38 C75          6.9450    -0.5080    -1.4090 c          1 AUA       0.587100
     39 O76          7.1960    -1.1050    -0.3690 o          1 AUA      -0.610100
     40 C65          5.2570     1.4000    -1.8780 c3         1 AUA      -0.065700
     41 C67          3.9380     1.7890    -2.5850 c3         1 AUA      -0.092100
     42 C71          5.3450     2.0480    -0.4740 c3         1 AUA      -0.092100
     43 C79          9.3760    -0.2860    -2.0390 c3         1 AUA       0.103000
     44 N77          7.9410    -0.1140    -2.2790 ns         1 AUA      -0.501900
     45 C82          9.9280     0.7770    -1.0670 c3         1 AUA      -0.096400
     46 C85         11.4440     0.6290    -0.8130 c3         1 AUA      -0.072400
     47 C88         12.0010     1.6950     0.1520 c3         1 AUA      -0.090100
     48 H201       -10.2950     1.2230     0.7430 hc         1 AUA       0.059367
     49 H202       -10.2980     2.8320    -0.0930 hc         1 AUA       0.059367
     50 H203       -10.6030     1.2560    -0.9360 hc         1 AUA       0.059367
     51 H16         -8.8840    -0.4390    -0.4030 hn         1 AUA       0.312500
     52 H14         -6.8440    -1.3260    -0.8960 h1         1 AUA       0.056700
     53 H241        -5.9080     1.3430    -2.0320 hc         1 AUA       0.062200
     54 H242        -5.2430    -0.2420    -2.3620 hc         1 AUA       0.062200
     55 H27         -8.0270     0.7050    -3.2070 hc         1 AUA       0.056700
     56 H291        -5.5150     0.2790    -4.9050 hc         1 AUA       0.033033
     57 H292        -7.1220     0.7400    -5.5060 hc         1 AUA       0.033033
     58 H293        -6.2200     1.8490    -4.4580 hc         1 AUA       0.033033
     59 H331        -8.0700    -1.7470    -2.8550 hc         1 AUA       0.033033
     60 H332        -8.1220    -1.3840    -4.5850 hc         1 AUA       0.033033
     61 H333        -6.6060    -1.9420    -3.8460 hc         1 AUA       0.033033
     62 H10         -4.2510    -0.6540    -0.6960 hn         1 AUA       0.334500
     63 H8          -3.6920     0.6470     1.9120 h1         1 AUA       0.088700
     64 H51         -2.3950    -1.3130     2.7630 hc         1 AUA       0.063200
     65 H52         -2.9140    -2.2790     1.3850 hc         1 AUA       0.063200
     66 H21         -5.2780    -2.1680     2.1740 h1         1 AUA       0.064700
     67 H22         -4.7870    -1.1090     3.5210 h1         1 AUA       0.064700
     68 H991        -5.6290    -4.5660     5.3480 h1         1 AUA       0.060033
     69 H992        -5.9660    -2.8110     5.2820 h1         1 AUA       0.060033
     70 H993        -6.4590    -3.8690     3.9260 h1         1 AUA       0.060033
     71 H39         -1.2960     0.6990     2.3410 hn         1 AUA       0.313500
     72 H41          0.0680     1.5260    -0.1620 h1         1 AUA       0.091700
     73 H43          2.2430     0.7190     0.5150 h1         1 AUA       0.086700
     74 H45          0.8620    -0.6430     2.6260 ho         1 AUA       0.442000
     75 H47          0.8220    -0.7100    -0.9090 hc         1 AUA       0.080700
     76 H49          3.1580    -1.8340     0.7410 hc         1 AUA       0.071700
     77 H511         1.5110    -3.3930    -1.3590 hc         1 AUA       0.090700
     78 H512         2.8180    -4.0950    -0.3110 hc         1 AUA       0.090700
     79 H551        -0.3370    -1.9510     1.5040 hc         1 AUA       0.076200
     80 H552        -0.5400    -2.3650    -0.2320 hc         1 AUA       0.076200
     81 H921        -0.4050     3.2050     1.5900 hc         1 AUA       0.049700
     82 H922         0.5670     2.3130     2.7430 hc         1 AUA       0.049700
     83 H95          2.6120     2.7350     1.3610 hc         1 AUA       0.050700
     84 H971         0.7920     4.4570    -0.4170 hc         1 AUA       0.035867
     85 H972         2.5650     4.3930    -0.5030 hc         1 AUA       0.035867
     86 H973         1.6120     2.9620    -0.9140 hc         1 AUA       0.035867
     87 H981         2.0410     4.2670     3.2140 hc         1 AUA       0.035867
     88 H982         2.8510     5.1320     1.8950 hc         1 AUA       0.035867
     89 H983         1.0930     5.2830     2.1060 hc         1 AUA       0.035867
     90 H61          4.7510    -0.9590    -0.0070 hn         1 AUA       0.342500
     91 H63          5.3890    -0.5310    -2.8750 h1         1 AUA       0.085700
     92 H65          6.0600     1.8430    -2.4810 hc         1 AUA       0.045700
     93 H671         3.0680     1.4380    -2.0190 hc         1 AUA       0.040367
     94 H672         3.8600     2.8780    -2.6850 hc         1 AUA       0.040367
     95 H673         3.8930     1.3540    -3.5910 hc         1 AUA       0.040367
     96 H711         6.3180     1.8490    -0.0080 hc         1 AUA       0.040367
     97 H712         5.2260     3.1360    -0.5440 hc         1 AUA       0.040367
     98 H713         4.5610     1.6650     0.1890 hc         1 AUA       0.040367
     99 H791         9.5550    -1.2910    -1.6320 h1         1 AUA       0.053200
    100 H792         9.9020    -0.2120    -3.0000 h1         1 AUA       0.053200
    101 H77          7.6500     0.3660    -3.1230 hn         1 AUA       0.316500
    102 H821         9.7260     1.7750    -1.4760 hc         1 AUA       0.043200
    103 H822         9.3950     0.7070    -0.1110 hc         1 AUA       0.043200
    104 H851        11.6480    -0.3670    -0.4010 hc         1 AUA       0.042200
    105 H852        11.9820     0.6970    -1.7670 hc         1 AUA       0.042200
    106 H881        11.8450     2.7030    -0.2510 hc         1 AUA       0.034033
    107 H882        11.5050     1.6310     1.1280 hc         1 AUA       0.034033
    108 H883        13.0770     1.5480     0.3030 hc         1 AUA       0.034033
@<TRIPOS>BOND
     1     1     2 2   
     2     1     3 1   
     3     1     4 1   
     4     3    48 1   
     5     3    49 1   
     6     3    50 1   
     7     4     5 1   
     8     4    51 1   
     9     5     6 1   
    10     5     8 1   
    11     5    52 1   
    12     6     7 2   
    13     6    12 1   
    14     8     9 1   
    15     8    53 1   
    16     8    54 1   
    17     9    10 1   
    18     9    11 1   
    19     9    55 1   
    20    10    56 1   
    21    10    57 1   
    22    10    58 1   
    23    11    59 1   
    24    11    60 1   
    25    11    61 1   
    26    12    13 1   
    27    12    62 1   
    28    13    14 1   
    29    13    16 1   
    30    13    63 1   
    31    14    15 2   
    32    14    20 1   
    33    16    17 1   
    34    16    64 1   
    35    16    65 1   
    36    17    18 1   
    37    17    66 1   
    38    17    67 1   
    39    18    19 1   
    40    19    68 1   
    41    19    69 1   
    42    19    70 1   
    43    20    21 1   
    44    20    71 1   
    45    21    22 1   
    46    21    32 1   
    47    21    72 1   
    48    22    23 1   
    49    22    24 1   
    50    22    73 1   
    51    23    74 1   
    52    24    25 1   
    53    24    28 1   
    54    24    75 1   
    55    25    26 1   
    56    25    30 1   
    57    25    76 1   
    58    26    27 1   
    59    26    77 1   
    60    26    78 1   
    61    27    28 1   
    62    27    29 2   
    63    28    79 1   
    64    28    80 1   
    65    30    31 2   
    66    30    36 1   
    67    32    33 1   
    68    32    81 1   
    69    32    82 1   
    70    33    34 1   
    71    33    35 1   
    72    33    83 1   
    73    34    84 1   
    74    34    85 1   
    75    34    86 1   
    76    35    87 1   
    77    35    88 1   
    78    35    89 1   
    79    36    37 1   
    80    36    90 1   
    81    37    38 1   
    82    37    40 1   
    83    37    91 1   
    84    38    39 2   
    85    38    44 1   
    86    40    41 1   
    87    40    42 1   
    88    40    92 1   
    89    41    93 1   
    90    41    94 1   
    91    41    95 1   
    92    42    96 1   
    93    42    97 1   
    94    42    98 1   
    95    43    44 1   
    96    43    45 1   
    97    43    99 1   
    98    43   100 1   
    99    44   101 1   
   100    45    46 1   
   101    45   102 1   
   102    45   103 1   
   103    46    47 1   
   104    46   104 1   
   105    46   105 1   
   106    47   106 1   
   107    47   107 1   
   108    47   108 1   
@<TRIPOS>SUBSTRUCTURE
     1 AUA         1 TEMP              0 ****  ****    0 ROOT
