@<TRIPOS>MOLECULE
AUA
  108   108     1     0     0
SMALL
bcc


@<TRIPOS>ATOM
      1 C18         -8.4300     1.5620     0.9540 c          1 AUA       0.680100
      2 O19         -7.7570     2.5670     0.7800 o          1 AUA      -0.591100
      3 C20         -9.7090     1.6010     1.7580 c3         1 AUA      -0.180100
      4 N16         -8.1210     0.3560     0.4410 ns         1 AUA      -0.561900
      5 C14         -6.9100     0.0340    -0.2680 c3         1 AUA       0.048700
      6 C12         -5.7100     0.0050     0.6880 c          1 AUA       0.652100
      7 O13         -5.7660     0.4210     1.8310 o          1 AUA      -0.587100
      8 C24         -6.6330     0.9150    -1.4980 c3         1 AUA      -0.077400
      9 C27         -7.8120     1.0470    -2.4620 c3         1 AUA      -0.056700
     10 C29         -7.4110     1.9440    -3.6300 c3         1 AUA      -0.089100
     11 C33         -8.3030    -0.3050    -2.9690 c3         1 AUA      -0.089100
     12 N10         -4.6030    -0.5390     0.1480 ns         1 AUA      -0.571900
     13 C8          -3.3340    -0.6380     0.8220 c3         1 AUA       0.031700
     14 C37         -2.2350    -0.2190    -0.1550 c          1 AUA       0.653100
     15 O38         -2.3570    -0.4150    -1.3550 o          1 AUA      -0.603100
     16 C5          -3.0450    -2.0590     1.3270 c3         1 AUA      -0.079400
     17 C2          -4.0880    -2.5370     2.3240 c3         1 AUA       0.016700
     18 S1          -3.6170    -4.1740     2.9500 ss         1 AUA      -0.340200
     19 C99         -5.0470    -4.5140     3.9980 c3         1 AUA      -0.005000
     20 N39         -1.1410     0.3060     0.4180 ns         1 AUA      -0.566900
     21 C41         -0.0260     0.8730    -0.3240 c3         1 AUA       0.077700
     22 C43          1.2930     0.1430    -0.0260 c3         1 AUA       0.141100
     23 O45          1.6060     0.1560     1.3460 oh         1 AUA      -0.593800
     24 C47          1.3920    -1.2490    -0.6540 c5         1 AUA      -0.085700
     25 C49          2.7610    -1.9310    -0.4120 c5         1 AUA      -0.143700
     26 C51          2.5280    -3.3690    -0.8540 c5         1 AUA      -0.183400
     27 C54          1.0870    -3.6380    -0.4940 c          1 AUA       0.574100
     28 C55          0.4060    -2.3210    -0.1860 c5         1 AUA      -0.189400
     29 O58          0.5600    -4.7220    -0.4580 o          1 AUA      -0.504100
     30 C59          3.8900    -1.2470    -1.1540 c          1 AUA       0.677100
     31 O60          4.0640    -1.4070    -2.3530 o          1 AUA      -0.611100
     32 C92          0.0360     2.3740    -0.0180 c3         1 AUA      -0.089400
     33 C95          1.0680     3.1930    -0.7960 c3         1 AUA      -0.058700
     34 C97          0.9220     3.0250    -2.3050 c3         1 AUA      -0.091600
     35 C98          0.9450     4.6620    -0.4040 c3         1 AUA      -0.091600
     36 N61          4.6480    -0.4390    -0.3930 ns         1 AUA      -0.555900
     37 C63          5.7930     0.2950    -0.8660 c3         1 AUA       0.032700
     38 C75          6.9200     0.1420     0.1540 c          1 AUA       0.654100
     39 O76          6.6980    -0.1530     1.3210 o          1 AUA      -0.610100
     40 C65          5.4860     1.7900    -1.1160 c3         1 AUA      -0.065700
     41 C67          4.4620     1.9530    -2.2320 c3         1 AUA      -0.092100
     42 C71          5.0290     2.5060     0.1500 c3         1 AUA      -0.092100
     43 C79          9.3300     0.3590     0.5210 c3         1 AUA       0.103000
     44 N77          8.1460     0.3910    -0.3160 ns         1 AUA      -0.568900
     45 C82         10.5860     0.5530    -0.3120 c3         1 AUA      -0.096400
     46 C85         11.8460     0.5250     0.5440 c3         1 AUA      -0.072400
     47 C88         13.1110     0.7130    -0.2800 c3         1 AUA      -0.090100
     48 H201        -9.4810     1.9060     2.7790 hc         1 AUA       0.059367
     49 H202       -10.3770     2.3520     1.3370 hc         1 AUA       0.059367
     50 H203       -10.2380     0.6510     1.7930 hc         1 AUA       0.059367
     51 H16         -8.7050    -0.4210     0.6980 hn         1 AUA       0.312500
     52 H14         -7.0470    -0.9910    -0.6240 h1         1 AUA       0.056700
     53 H241        -6.3110     1.9060    -1.1810 hc         1 AUA       0.062200
     54 H242        -5.7930     0.4770    -2.0450 hc         1 AUA       0.062200
     55 H27         -8.6370     1.5340    -1.9340 hc         1 AUA       0.056700
     56 H291        -6.5910     1.5020    -4.2010 hc         1 AUA       0.033033
     57 H292        -8.2460     2.0960    -4.3150 hc         1 AUA       0.033033
     58 H293        -7.0830     2.9270    -3.2850 hc         1 AUA       0.033033
     59 H331        -8.7080    -0.9260    -2.1700 hc         1 AUA       0.033033
     60 H332        -9.0970    -0.1750    -3.7070 hc         1 AUA       0.033033
     61 H333        -7.4960    -0.8640    -3.4490 hc         1 AUA       0.033033
     62 H10         -4.6350    -0.8890    -0.7970 hn         1 AUA       0.334500
     63 H8          -3.3510     0.0420     1.6760 h1         1 AUA       0.088700
     64 H51         -2.0590    -2.0650     1.7980 hc         1 AUA       0.063200
     65 H52         -3.0000    -2.7470     0.4780 hc         1 AUA       0.063200
     66 H21         -5.0670    -2.6160     1.8490 h1         1 AUA       0.064700
     67 H22         -4.1700    -1.8390     3.1590 h1         1 AUA       0.064700
     68 H991        -4.9000    -5.4920     4.4520 h1         1 AUA       0.060033
     69 H992        -5.1410    -3.7730     4.7900 h1         1 AUA       0.060033
     70 H993        -5.9660    -4.5360     3.4130 h1         1 AUA       0.060033
     71 H39         -1.2040     0.5470     1.3960 hn         1 AUA       0.313500
     72 H41         -0.2490     0.7320    -1.3830 h1         1 AUA       0.091700
     73 H43          2.0790     0.7400    -0.5010 h1         1 AUA       0.086700
     74 H45          1.0190    -0.4450     1.8170 ho         1 AUA       0.403000
     75 H47          1.2650    -1.1180    -1.7360 hc         1 AUA       0.080700
     76 H49          2.9610    -1.9200     0.6640 hc         1 AUA       0.071700
     77 H511         2.6220    -3.4550    -1.9420 hc         1 AUA       0.090700
     78 H512         3.2060    -4.0960    -0.4070 hc         1 AUA       0.090700
     79 H551         0.2520    -2.2890     0.8990 hc         1 AUA       0.076200
     80 H552        -0.5750    -2.2750    -0.6570 hc         1 AUA       0.076200
     81 H921        -0.9560     2.7870    -0.2280 hc         1 AUA       0.049700
     82 H922         0.2070     2.5130     1.0550 hc         1 AUA       0.049700
     83 H95          2.0740     2.8680    -0.5070 hc         1 AUA       0.050700
     84 H971        -0.0950     3.2650    -2.6280 hc         1 AUA       0.035867
     85 H972         1.6030     3.6890    -2.8390 hc         1 AUA       0.035867
     86 H973         1.1430     2.0100    -2.6390 hc         1 AUA       0.035867
     87 H981         1.0640     4.7980     0.6720 hc         1 AUA       0.035867
     88 H982         1.7060     5.2660    -0.9000 hc         1 AUA       0.035867
     89 H983        -0.0330     5.0620    -0.6830 hc         1 AUA       0.035867
     90 H61          4.4740    -0.4180     0.6010 hn         1 AUA       0.342500
     91 H63          6.1060    -0.1490    -1.8150 h1         1 AUA       0.085700
     92 H65          6.4210     2.2480    -1.4530 hc         1 AUA       0.045700
     93 H671         3.4910     1.5430    -1.9480 hc         1 AUA       0.040367
     94 H672         4.3080     3.0090    -2.4570 hc         1 AUA       0.040367
     95 H673         4.7770     1.4550    -3.1500 hc         1 AUA       0.040367
     96 H711         5.7840     2.4990     0.9360 hc         1 AUA       0.040367
     97 H712         4.7980     3.5500    -0.0670 hc         1 AUA       0.040367
     98 H713         4.1210     2.0530     0.5560 hc         1 AUA       0.040367
     99 H791         9.2670     1.1400     1.2840 h1         1 AUA       0.053200
    100 H792         9.3790    -0.5970     1.0480 h1         1 AUA       0.053200
    101 H77          8.2630     0.5960    -1.2960 hn         1 AUA       0.316500
    102 H821        10.6440    -0.2310    -1.0740 hc         1 AUA       0.043200
    103 H822        10.5290     1.5070    -0.8460 hc         1 AUA       0.043200
    104 H851        11.7840     1.3070     1.3060 hc         1 AUA       0.042200
    105 H852        11.8960    -0.4250     1.0840 hc         1 AUA       0.042200
    106 H881        13.2150    -0.0720    -1.0300 hc         1 AUA       0.034033
    107 H882        13.1010     1.6700    -0.8040 hc         1 AUA       0.034033
    108 H883        14.0030     0.6910     0.3480 hc         1 AUA       0.034033
@<TRIPOS>BOND
     1     1     2 2   
     2     1     3 1   
     3     1     4 1   
     4     3    48 1   
     5     3    49 1   
     6     3    50 1   
     7     4     5 1   
     8     4    51 1   
     9     5     6 1   
    10     5     8 1   
    11     5    52 1   
    12     6     7 2   
    13     6    12 1   
    14     8     9 1   
    15     8    53 1   
    16     8    54 1   
    17     9    10 1   
    18     9    11 1   
    19     9    55 1   
    20    10    56 1   
    21    10    57 1   
    22    10    58 1   
    23    11    59 1   
    24    11    60 1   
    25    11    61 1   
    26    12    13 1   
    27    12    62 1   
    28    13    14 1   
    29    13    16 1   
    30    13    63 1   
    31    14    15 2   
    32    14    20 1   
    33    16    17 1   
    34    16    64 1   
    35    16    65 1   
    36    17    18 1   
    37    17    66 1   
    38    17    67 1   
    39    18    19 1   
    40    19    68 1   
    41    19    69 1   
    42    19    70 1   
    43    20    21 1   
    44    20    71 1   
    45    21    22 1   
    46    21    32 1   
    47    21    72 1   
    48    22    23 1   
    49    22    24 1   
    50    22    73 1   
    51    23    74 1   
    52    24    25 1   
    53    24    28 1   
    54    24    75 1   
    55    25    26 1   
    56    25    30 1   
    57    25    76 1   
    58    26    27 1   
    59    26    77 1   
    60    26    78 1   
    61    27    28 1   
    62    27    29 2   
    63    28    79 1   
    64    28    80 1   
    65    30    31 2   
    66    30    36 1   
    67    32    33 1   
    68    32    81 1   
    69    32    82 1   
    70    33    34 1   
    71    33    35 1   
    72    33    83 1   
    73    34    84 1   
    74    34    85 1   
    75    34    86 1   
    76    35    87 1   
    77    35    88 1   
    78    35    89 1   
    79    36    37 1   
    80    36    90 1   
    81    37    38 1   
    82    37    40 1   
    83    37    91 1   
    84    38    39 2   
    85    38    44 1   
    86    40    41 1   
    87    40    42 1   
    88    40    92 1   
    89    41    93 1   
    90    41    94 1   
    91    41    95 1   
    92    42    96 1   
    93    42    97 1   
    94    42    98 1   
    95    43    44 1   
    96    43    45 1   
    97    43    99 1   
    98    43   100 1   
    99    44   101 1   
   100    45    46 1   
   101    45   102 1   
   102    45   103 1   
   103    46    47 1   
   104    46   104 1   
   105    46   105 1   
   106    47   106 1   
   107    47   107 1   
   108    47   108 1   
@<TRIPOS>SUBSTRUCTURE
     1 AUA         1 TEMP              0 ****  ****    0 ROOT
