@<TRIPOS>MOLECULE
AUB
   61    65     1     0     0
SMALL
No Charge or Current Charge


@<TRIPOS>ATOM
      1 C22          6.2770    -1.1080    -0.7460 ca         1 AUB      -0.056000
      2 C24          7.4320     0.4180     0.7520 ca         1 AUB      -0.056000
      3 C21          5.1460    -0.2720    -0.7280 ca         1 AUB      -0.201500
      4 C25          6.3000     1.2510     0.7690 ca         1 AUB      -0.201500
      5 C23          7.4360    -0.7760    -0.0050 ca         1 AUB      -0.159600
      6 C20          5.1510     0.9130     0.0390 ca         1 AUB       0.103100
      7 C28          8.6570    -1.6800    -0.0250 c          1 AUB       0.714600
      8 C26         -2.5990     0.5560     0.1410 c          1 AUB       0.652100
      9 C14          0.4710     2.4090    -0.9820 c6         1 AUB      -0.090400
     10 C12          0.6460     0.0720    -0.0160 c6         1 AUB      -0.090400
     11 C15          1.9050     2.7240    -0.4860 c6         1 AUB      -0.088400
     12 C17          2.0820     0.3790     0.4800 c6         1 AUB      -0.088400
     13 C6          -7.2190    -2.2050    -0.4910 c6         1 AUB      -0.070067
     14 C9          -8.0030     0.1590     0.0010 c6         1 AUB      -0.070067
     15 C4          -6.9430    -1.2360     1.8400 c6         1 AUB      -0.070067
     16 C2          -5.9520    -0.2230    -1.4430 c6         1 AUB      -0.083067
     17 C10         -4.9030    -1.6290     0.3750 c6         1 AUB      -0.083067
     18 C8          -5.6930     0.7550     0.8710 c6         1 AUB      -0.083067
     19 C1          -7.3610    -0.7690    -1.0690 c6         1 AUB      -0.056033
     20 C5          -6.3080    -2.1710     0.7680 c6         1 AUB      -0.056033
     21 C3          -7.0950     0.2030     1.2630 c6         1 AUB      -0.056033
     22 C13         -0.2220     1.3570    -0.0780 c6         1 AUB       0.113700
     23 C16          2.7750     1.4440    -0.4160 c6         1 AUB       0.181300
     24 C7          -5.0200    -0.1760    -0.1880 c6         1 AUB       0.156400
     25 N18         -1.5590     1.0510    -0.5960 ns         1 AUB      -0.516900
     26 N11         -3.7150     0.3470    -0.6260 ns         1 AUB      -0.529900
     27 O29          8.6180    -2.7020    -0.6960 o          1 AUB      -0.725000
     28 O27         -2.5250     0.3340     1.3370 o          1 AUB      -0.647100
     29 O30          9.6370    -1.3550     0.6290 o          1 AUB      -0.725000
     30 O19          4.0810     1.7870     0.0970 os         1 AUB      -0.365100
     31 H1           6.2500    -2.0170    -1.3430 ha         1 AUB       0.126000
     32 H2           8.3070     0.7050     1.3310 ha         1 AUB       0.126000
     33 H3           4.2840    -0.5630    -1.3190 ha         1 AUB       0.094000
     34 H4           6.3150     2.1660     1.3550 ha         1 AUB       0.094000
     35 H5          -0.1230     3.3330    -0.9970 hc         1 AUB       0.041450
     36 H6           0.5120     2.0460    -2.0180 hc         1 AUB       0.041450
     37 H7           0.6920    -0.3970    -1.0080 hc         1 AUB       0.041450
     38 H8           0.1770    -0.6630     0.6540 hc         1 AUB       0.041450
     39 H9           2.3770     3.4530    -1.1590 hc         1 AUB       0.057700
     40 H10          1.8590     3.1970     0.5050 hc         1 AUB       0.057700
     41 H11          2.0440     0.7400     1.5180 hc         1 AUB       0.057700
     42 H12          2.6660    -0.5490     0.4970 hc         1 AUB       0.057700
     43 H15         -8.1370     1.1710    -0.4050 hc         1 AUB       0.039200
     44 H16         -9.0050    -0.2040     0.2660 hc         1 AUB       0.039200
     45 H17         -7.9230    -1.6250     2.1490 hc         1 AUB       0.039200
     46 H18         -6.3190    -1.2170     2.7440 hc         1 AUB       0.039200
     47 H19         -5.5050    -0.8570    -2.2230 hc         1 AUB       0.052200
     48 H20         -6.0480     0.7800    -1.8820 hc         1 AUB       0.052200
     49 H21         -4.2470    -1.6510     1.2550 hc         1 AUB       0.052200
     50 H22         -4.4390    -2.2890    -0.3710 hc         1 AUB       0.052200
     51 H23         -5.7870     1.7760     0.4760 hc         1 AUB       0.052200
     52 H24         -5.0700     0.8300     1.7720 hc         1 AUB       0.052200
     53 H25         -7.9970    -0.7930    -1.9640 hc         1 AUB       0.048367
     54 H26         -6.2090    -3.1860     1.1780 hc         1 AUB       0.048367
     55 H27         -7.5500     0.8570     2.0200 hc         1 AUB       0.048367
     56 H28         -0.3240     1.7720     0.9370 h1         1 AUB       0.083700
     57 H29          2.8800     1.0590    -1.4410 h1         1 AUB       0.040700
     58 H30         -1.7300     1.2020    -1.5810 hn         1 AUB       0.291500
     59 H31         -3.6240     0.5800    -1.6050 hn         1 AUB       0.300500
     60 H13         -8.2070    -2.6110    -0.2350 hc         1 AUB       0.039200
     61 H14         -6.7940    -2.8790    -1.2490 hc         1 AUB       0.039200
@<TRIPOS>BOND
     1     1     3 ar  
     2     1     5 ar  
     3     1    31 1   
     4     2     4 ar  
     5     2     5 ar  
     6     2    32 1   
     7     3     6 ar  
     8     3    33 1   
     9     4     6 ar  
    10     4    34 1   
    11     5     7 1   
    12     6    30 1   
    13     7    27 1   
    14     7    29 1   
    15     8    25 1   
    16     8    26 1   
    17     8    28 2   
    18     9    11 1   
    19     9    22 1   
    20     9    35 1   
    21     9    36 1   
    22    10    12 1   
    23    10    22 1   
    24    10    37 1   
    25    10    38 1   
    26    11    23 1   
    27    11    39 1   
    28    11    40 1   
    29    12    23 1   
    30    12    41 1   
    31    12    42 1   
    32    13    19 1   
    33    13    20 1   
    34    13    60 1   
    35    13    61 1   
    36    14    19 1   
    37    14    21 1   
    38    14    43 1   
    39    14    44 1   
    40    15    20 1   
    41    15    21 1   
    42    15    45 1   
    43    15    46 1   
    44    16    19 1   
    45    16    24 1   
    46    16    47 1   
    47    16    48 1   
    48    17    20 1   
    49    17    24 1   
    50    17    49 1   
    51    17    50 1   
    52    18    21 1   
    53    18    24 1   
    54    18    51 1   
    55    18    52 1   
    56    19    53 1   
    57    20    54 1   
    58    21    55 1   
    59    22    25 1   
    60    22    56 1   
    61    23    30 1   
    62    23    57 1   
    63    24    26 1   
    64    25    58 1   
    65    26    59 1   
@<TRIPOS>SUBSTRUCTURE
     1 AUB         1 TEMP              0 ****  ****    0 ROOT
