@<TRIPOS>MOLECULE
AUB
   61    65     1     0     0
SMALL
bcc


@<TRIPOS>ATOM
      1 C22          6.0810    -1.1470    -0.7350 ca         1 AUB      -0.074000
      2 C24          7.3050     0.3550     0.6470 ca         1 AUB      -0.074000
      3 C21          4.9410    -0.3620    -0.6070 ca         1 AUB      -0.219500
      4 C25          6.1830     1.1510     0.7870 ca         1 AUB      -0.219500
      5 C23          7.2800    -0.8100    -0.1190 ca         1 AUB      -0.159600
      6 C20          4.9870     0.8040     0.1560 ca         1 AUB       0.103100
      7 C28          8.5170    -1.6770    -0.2760 c          1 AUB       0.925200
      8 C26         -2.6360     0.7830     0.0250 c          1 AUB       0.786100
      9 C14          0.5240     2.4540    -0.8960 c6         1 AUB      -0.090400
     10 C12          0.5290     0.1090    -0.0040 c6         1 AUB      -0.090400
     11 C15          1.9120     2.6790    -0.3040 c6         1 AUB      -0.088400
     12 C17          1.9150     0.3420     0.5900 c6         1 AUB      -0.088400
     13 C6          -6.9690    -2.2600    -0.4240 c6         1 AUB      -0.070067
     14 C9          -7.9230     0.0190    -0.0420 c6         1 AUB      -0.070067
     15 C4          -6.7770    -1.1830     1.8230 c6         1 AUB      -0.070067
     16 C2          -5.8850    -0.2660    -1.4580 c6         1 AUB      -0.083067
     17 C10         -4.7440    -1.4740     0.3960 c6         1 AUB      -0.083067
     18 C8          -5.6960     0.8150     0.7740 c6         1 AUB      -0.083067
     19 C1          -7.2220    -0.8890    -1.0540 c6         1 AUB      -0.056033
     20 C5          -6.0810    -2.0950     0.8100 c6         1 AUB      -0.056033
     21 C3          -7.0300     0.1870     1.1880 c6         1 AUB      -0.056033
     22 C13         -0.2620     1.4150    -0.1020 c6         1 AUB       0.113700
     23 C16          2.6810     1.3690    -0.2360 c6         1 AUB       0.158100
     24 C7          -4.9750    -0.0920    -0.2320 c6         1 AUB       0.156400
     25 N18         -1.5670     1.2300    -0.6980 ns         1 AUB      -0.583900
     26 N11         -3.7360     0.5020    -0.7200 ns         1 AUB      -0.596900
     27 O29          8.3930    -2.7150    -0.9570 o          1 AUB      -0.830300
     28 O27         -2.5990     0.6860     1.2490 o          1 AUB      -0.647100
     29 O30          9.5570    -1.2790     0.2860 o          1 AUB      -0.830300
     30 O19          3.9560     1.6550     0.3300 os         1 AUB      -0.341900
     31 H1           6.0270    -2.0470    -1.3340 ha         1 AUB       0.144000
     32 H2           8.2220     0.6460     1.1430 ha         1 AUB       0.144000
     33 H3           4.0360    -0.6780    -1.1080 ha         1 AUB       0.112000
     34 H4           6.2230     2.0550     1.3850 ha         1 AUB       0.112000
     35 H5          -0.0260     3.3960    -0.9220 hc         1 AUB       0.041450
     36 H6           0.6250     2.1180    -1.9350 hc         1 AUB       0.041450
     37 H7           0.6220    -0.3270    -1.0050 hc         1 AUB       0.041450
     38 H8          -0.0190    -0.6110     0.6060 hc         1 AUB       0.041450
     39 H9           2.4610     3.4020    -0.9110 hc         1 AUB       0.057700
     40 H10          1.8230     3.1010     0.7030 hc         1 AUB       0.057700
     41 H11          1.8210     0.7140     1.6150 hc         1 AUB       0.057700
     42 H12          2.4600    -0.6030     0.6450 hc         1 AUB       0.057700
     43 H15         -8.1330     0.9950    -0.4930 hc         1 AUB       0.039200
     44 H16         -8.8880    -0.4100     0.2440 hc         1 AUB       0.039200
     45 H17         -7.7230    -1.6310     2.1400 hc         1 AUB       0.039200
     46 H18         -6.1610    -1.0750     2.7220 hc         1 AUB       0.039200
     47 H19         -5.3850    -0.9040    -2.1950 hc         1 AUB       0.052200
     48 H20         -6.0510     0.7090    -1.9300 hc         1 AUB       0.052200
     49 H21         -4.0870    -1.3870     1.2630 hc         1 AUB       0.052200
     50 H22         -4.2370    -2.1190    -0.3300 hc         1 AUB       0.052200
     51 H23         -5.8640     1.7950     0.3150 hc         1 AUB       0.052200
     52 H24         -5.0690     0.9740     1.6530 hc         1 AUB       0.052200
     53 H25         -7.8450    -0.9990    -1.9460 hc         1 AUB       0.048367
     54 H26         -5.8940    -3.0730     1.2630 hc         1 AUB       0.048367
     55 H27         -7.5240     0.8420     1.9130 hc         1 AUB       0.048367
     56 H28         -0.4150     1.8020     0.9080 h1         1 AUB       0.083700
     57 H29          2.8070     0.9970    -1.2610 h1         1 AUB       0.040700
     58 H30         -1.5840     1.1080    -1.6990 hn         1 AUB       0.291500
     59 H31         -3.6520     0.5810    -1.7210 hn         1 AUB       0.300500
     60 H13         -7.9190    -2.7320    -0.1480 hc         1 AUB       0.039200
     61 H14         -6.4860    -2.9230    -1.1490 hc         1 AUB       0.039200
@<TRIPOS>BOND
     1     1     3 ar  
     2     1     5 ar  
     3     1    31 1   
     4     2     4 ar  
     5     2     5 ar  
     6     2    32 1   
     7     3     6 ar  
     8     3    33 1   
     9     4     6 ar  
    10     4    34 1   
    11     5     7 1   
    12     6    30 1   
    13     7    27 1   
    14     7    29 1   
    15     8    25 1   
    16     8    26 1   
    17     8    28 2   
    18     9    11 1   
    19     9    22 1   
    20     9    35 1   
    21     9    36 1   
    22    10    12 1   
    23    10    22 1   
    24    10    37 1   
    25    10    38 1   
    26    11    23 1   
    27    11    39 1   
    28    11    40 1   
    29    12    23 1   
    30    12    41 1   
    31    12    42 1   
    32    13    19 1   
    33    13    20 1   
    34    13    60 1   
    35    13    61 1   
    36    14    19 1   
    37    14    21 1   
    38    14    43 1   
    39    14    44 1   
    40    15    20 1   
    41    15    21 1   
    42    15    45 1   
    43    15    46 1   
    44    16    19 1   
    45    16    24 1   
    46    16    47 1   
    47    16    48 1   
    48    17    20 1   
    49    17    24 1   
    50    17    49 1   
    51    17    50 1   
    52    18    21 1   
    53    18    24 1   
    54    18    51 1   
    55    18    52 1   
    56    19    53 1   
    57    20    54 1   
    58    21    55 1   
    59    22    25 1   
    60    22    56 1   
    61    23    30 1   
    62    23    57 1   
    63    24    26 1   
    64    25    58 1   
    65    26    59 1   
@<TRIPOS>SUBSTRUCTURE
     1 AUB         1 TEMP              0 ****  ****    0 ROOT
