@<TRIPOS>MOLECULE
AUD
   15    15     1     0     0
SMALL
bcc


@<TRIPOS>ATOM
      1 CAJ         -1.8740     2.3950    -0.0420 c3         1 AUD      -0.064900
      2 CAC         -1.1780     1.0820    -0.0910 c2         1 AUD       0.215900
      3 OAB          0.1390     1.1860    -0.4570 os         1 AUD      -0.450800
      4 SAA          1.1810     0.0470     0.0370 s6         1 AUD       1.584100
      5 OAG          1.3240     0.1820     1.4600 o          1 AUD      -0.591300
      6 OAH          2.3180     0.1370    -0.8310 o          1 AUD      -0.591300
      7 NAF          0.2920    -1.2810    -0.3600 ns         1 AUD      -0.696300
      8 CAE         -1.0640    -1.3790    -0.0410 c          1 AUD       0.743700
      9 OAI         -1.6050    -2.4590    -0.0070 o          1 AUD      -0.555500
     10 CAD         -1.7420    -0.1060     0.1590 ce         1 AUD      -0.351200
     11 HAJ         -1.2040     3.2130    -0.2950 hc         1 AUD       0.073033
     12 HAK         -2.7160     2.4050    -0.7320 hc         1 AUD       0.073033
     13 HAL         -2.2650     2.5690     0.9600 hc         1 AUD       0.073033
     14 HAD         -2.7840    -0.1410     0.4400 ha         1 AUD       0.186000
     15 HAF          0.8130    -2.1380    -0.5260 hn         1 AUD       0.353500
@<TRIPOS>BOND
     1     1     2 1   
     2     1    11 1   
     3     1    12 1   
     4     1    13 1   
     5     2     3 1   
     6     2    10 2   
     7     3     4 1   
     8     4     5 2   
     9     4     6 2   
    10     4     7 1   
    11     7     8 1   
    12     7    15 1   
    13     8     9 2   
    14     8    10 1   
    15    10    14 1   
@<TRIPOS>SUBSTRUCTURE
     1 AUD         1 TEMP              0 ****  ****    0 ROOT
