@<TRIPOS>MOLECULE
AUD
   15    15     1     0     0
SMALL
No Charge or Current Charge


@<TRIPOS>ATOM
      1 CAJ         -1.8960     2.4080    -0.0150 c3         1 AUD      -0.064900
      2 CAC         -1.1870     1.0780    -0.0970 c2         1 AUD       0.215900
      3 OAB          0.0850     1.2120    -0.5570 os         1 AUD      -0.450800
      4 SAA          1.1840     0.0720    -0.1240 s6         1 AUD       1.442500
      5 OAG          1.4970     0.2380     1.3000 o          1 AUD      -0.520500
      6 OAH          2.2590     0.0140    -1.1210 o          1 AUD      -0.520500
      7 NAF          0.2640    -1.2970    -0.2720 ns         1 AUD      -0.629300
      8 CAE         -1.0380    -1.3900     0.0380 c          1 AUD       0.601200
      9 OAI         -1.5840    -2.4680     0.1770 o          1 AUD      -0.480000
     10 CAD         -1.7470    -0.1120     0.1780 ce         1 AUD      -0.401200
     11 HAJ         -1.2480     3.1740     0.4250 hc         1 AUD       0.073033
     12 HAK         -2.1940     2.7510    -1.0120 hc         1 AUD       0.073033
     13 HAL         -2.7990     2.3420     0.6020 hc         1 AUD       0.073033
     14 HAD         -2.7850    -0.1850     0.4960 ha         1 AUD       0.236000
     15 HAF          0.8240    -2.1260    -0.3440 hn         1 AUD       0.353500
@<TRIPOS>BOND
     1     1     2 1   
     2     1    11 1   
     3     1    12 1   
     4     1    13 1   
     5     2     3 1   
     6     2    10 2   
     7     3     4 1   
     8     4     5 2   
     9     4     6 2   
    10     4     7 1   
    11     7     8 1   
    12     7    15 1   
    13     8     9 2   
    14     8    10 1   
    15    10    14 1   
@<TRIPOS>SUBSTRUCTURE
     1 AUD         1 TEMP              0 ****  ****    0 ROOT
