@<TRIPOS>MOLECULE
AUE
   30    32     1     0     0
SMALL
No Charge or Current Charge


@<TRIPOS>ATOM
      1 N01         -3.9530     1.5330    -0.2130 nb         1 AUE      -0.361000
      2 C02         -4.4690     0.3640     0.1540 ca         1 AUE       0.455900
      3 N03         -3.8280    -0.7850     0.3890 nb         1 AUE      -0.289000
      4 C04         -2.4840    -0.7980     0.2500 ca         1 AUE       0.177000
      5 C05         -1.8060     0.4020    -0.1410 ca         1 AUE      -0.025000
      6 C06         -2.6280     1.5420    -0.3610 ca         1 AUE       0.477900
      7 N07         -1.7790    -1.9270     0.4860 nb         1 AUE      -0.230000
      8 C08         -0.4450    -1.8960     0.3360 ca         1 AUE       0.370900
      9 C09          0.2460    -0.7010    -0.0710 cp         1 AUE       0.261500
     10 N10         -0.4490     0.4420    -0.2880 nb         1 AUE      -0.580000
     11 C11          1.7360    -0.6130    -0.2560 cp         1 AUE      -0.120500
     12 C12          2.4690    -1.6420    -0.9060 ca         1 AUE      -0.110000
     13 C13          3.8610    -1.5470    -1.0810 ca         1 AUE      -0.105000
     14 C14          4.5520    -0.4160    -0.6150 ca         1 AUE      -0.099000
     15 C15          3.8480     0.6190     0.0190 ca         1 AUE       0.116000
     16 C16          2.4580     0.5250     0.1930 ca         1 AUE      -0.078000
     17 N17         -2.1200     2.7490    -0.7370 nv         1 AUE      -1.058900
     18 N18         -5.8090     0.3410     0.3030 nv         1 AUE      -1.066900
     19 N19          0.1600    -3.0940     0.6560 nv         1 AUE      -1.063900
     20 Cl           4.7110     2.0390     0.5960 cl         1 AUE      -0.203000
     21 H1           1.9510    -2.5150    -1.2990 ha         1 AUE       0.127000
     22 H2           4.4020    -2.3460    -1.5830 ha         1 AUE       0.120000
     23 H3           5.6280    -0.3400    -0.7490 ha         1 AUE       0.131000
     24 H4           1.9330     1.3380     0.6880 ha         1 AUE       0.138000
     25 H5          -1.1120     2.8520    -0.6530 hn         1 AUE       0.509500
     26 H6          -2.6810     3.5770    -0.5620 hn         1 AUE       0.509500
     27 H7          -6.3420     1.1080    -0.0990 hn         1 AUE       0.504500
     28 H8          -6.2720    -0.5640     0.3360 hn         1 AUE       0.504500
     29 H9          -0.3970    -3.8030     1.1290 hn         1 AUE       0.493500
     30 H10          1.1610    -3.1060     0.8410 hn         1 AUE       0.493500
@<TRIPOS>BOND
     1     1     2 ar  
     2     1     6 ar  
     3     2     3 ar  
     4     2    18 1   
     5     3     4 ar  
     6     4     5 ar  
     7     4     7 ar  
     8     5     6 ar  
     9     5    10 ar  
    10     6    17 1   
    11     7     8 ar  
    12     8     9 ar  
    13     8    19 1   
    14     9    10 ar  
    15     9    11 1   
    16    11    12 ar  
    17    11    16 ar  
    18    12    13 ar  
    19    12    21 1   
    20    13    14 ar  
    21    13    22 1   
    22    14    15 ar  
    23    14    23 1   
    24    15    16 ar  
    25    15    20 1   
    26    16    24 1   
    27    17    25 1   
    28    17    26 1   
    29    18    27 1   
    30    18    28 1   
    31    19    29 1   
    32    19    30 1   
@<TRIPOS>SUBSTRUCTURE
     1 AUE         1 TEMP              0 ****  ****    0 ROOT
