@<TRIPOS>MOLECULE
AUE
   30    32     1     0     0
SMALL
abcg2


@<TRIPOS>ATOM
      1 N01         -3.8830     1.5020    -0.2220 nb         1 AUE      -0.361000
      2 C02         -4.4290     0.3170     0.1170 ca         1 AUE       0.455900
      3 N03         -3.7990    -0.8270     0.3600 nb         1 AUE      -0.289000
      4 C04         -2.4660    -0.7910     0.2520 ca         1 AUE       0.177000
      5 C05         -1.7780     0.3830    -0.1030 ca         1 AUE      -0.025000
      6 C06         -2.5710     1.5530    -0.3340 ca         1 AUE       0.477900
      7 N07         -1.7720    -1.9110     0.5070 nb         1 AUE      -0.230000
      8 C08         -0.4610    -1.8820     0.3870 ca         1 AUE       0.370900
      9 C09          0.2310    -0.6870    -0.0400 cp         1 AUE       0.261500
     10 N10         -0.4510     0.4060    -0.2420 nb         1 AUE      -0.580000
     11 C11          1.6950    -0.6230    -0.2280 cp         1 AUE      -0.120500
     12 C12          2.3930    -1.6040    -0.9330 ca         1 AUE      -0.110000
     13 C13          3.7600    -1.4840    -1.1310 ca         1 AUE      -0.105000
     14 C14          4.4560    -0.3940    -0.6330 ca         1 AUE      -0.099000
     15 C15          3.7530     0.5800     0.0600 ca         1 AUE       0.116000
     16 C16          2.3880     0.4830     0.2640 ca         1 AUE      -0.078000
     17 N17         -1.9790     2.6960    -0.6680 nv         1 AUE      -1.058900
     18 N18         -5.7660     0.3140     0.2340 nv         1 AUE      -1.066900
     19 N19          0.2160    -3.0090     0.6710 nv         1 AUE      -1.063900
     20 CL           4.6030     1.9530     0.6930 cl         1 AUE      -0.203000
     21 H1           1.8690    -2.4530    -1.3520 ha         1 AUE       0.127000
     22 H2           4.2910    -2.2460    -1.6860 ha         1 AUE       0.120000
     23 H3           5.5230    -0.3030    -0.7850 ha         1 AUE       0.131000
     24 H4           1.8590     1.2540     0.8070 ha         1 AUE       0.138000
     25 H5          -0.9770     2.7510    -0.7360 hn         1 AUE       0.509500
     26 H6          -2.5210     3.5280    -0.8220 hn         1 AUE       0.509500
     27 H7          -6.2990     1.1210    -0.0370 hn         1 AUE       0.504500
     28 H8          -6.2540    -0.5480     0.4020 hn         1 AUE       0.504500
     29 H9          -0.2920    -3.7570     1.1140 hn         1 AUE       0.493500
     30 H10          1.2060    -2.9840     0.8470 hn         1 AUE       0.493500
@<TRIPOS>BOND
     1     1     2 ar  
     2     1     6 ar  
     3     2     3 ar  
     4     2    18 1   
     5     3     4 ar  
     6     4     5 ar  
     7     4     7 ar  
     8     5     6 ar  
     9     5    10 ar  
    10     6    17 1   
    11     7     8 ar  
    12     8     9 ar  
    13     8    19 1   
    14     9    10 ar  
    15     9    11 1   
    16    11    12 ar  
    17    11    16 ar  
    18    12    13 ar  
    19    12    21 1   
    20    13    14 ar  
    21    13    22 1   
    22    14    15 ar  
    23    14    23 1   
    24    15    16 ar  
    25    15    20 1   
    26    16    24 1   
    27    17    25 1   
    28    17    26 1   
    29    18    27 1   
    30    18    28 1   
    31    19    29 1   
    32    19    30 1   
@<TRIPOS>SUBSTRUCTURE
     1 AUE         1 TEMP              0 ****  ****    0 ROOT
