@<TRIPOS>MOLECULE
AUG
   30    32     1     0     0
SMALL
bcc


@<TRIPOS>ATOM
      1 N01         -4.3860     1.7320    -0.2550 nb         1 AUG      -0.887000
      2 C02         -5.0550     0.6470     0.1840 ca         1 AUG       0.978900
      3 N03         -4.5570    -0.5480     0.4780 nb         1 AUG      -0.814000
      4 C04         -3.2360    -0.6860     0.3160 ca         1 AUG       0.703000
      5 C05         -2.4280     0.3700    -0.1420 ca         1 AUG      -0.025000
      6 C06         -3.0830     1.6130    -0.4220 ca         1 AUG       0.739900
      7 N07         -2.6740    -1.8660     0.6180 nb         1 AUG      -0.755000
      8 C08         -1.3750    -2.0070     0.4430 ca         1 AUG       0.633900
      9 C09         -0.5640    -0.9340    -0.0850 cp         1 AUG       0.262500
     10 N10         -1.1150     0.2200    -0.3330 nb         1 AUG      -0.580000
     11 C11          0.8870    -1.0670    -0.3310 cp         1 AUG      -0.128500
     12 C12          1.4240    -2.1590    -1.0120 ca         1 AUG      -0.116000
     13 C13          2.7850    -2.2260    -1.2650 ca         1 AUG      -0.131000
     14 C14          3.6350    -1.2120    -0.8490 ca         1 AUG      -0.098000
     15 C15          3.0910    -0.1240    -0.1800 ca         1 AUG      -0.022900
     16 C16          1.7340    -0.0380     0.0790 ca         1 AUG      -0.077000
     17 N17         -2.3730     2.6510    -0.8550 nv         1 AUG      -0.948500
     18 N18         -6.3750     0.8200     0.3580 nv         1 AUG      -0.951500
     19 N19         -0.8270    -3.1910     0.7700 nv         1 AUG      -0.954500
     20 BR           4.2290     1.2710     0.3940 br         1 AUG      -0.097100
     21 H1           0.7820    -2.9540    -1.3700 ha         1 AUG       0.144000
     22 H2           3.1920    -3.0740    -1.7990 ha         1 AUG       0.138000
     23 H3           4.6960    -1.2750    -1.0480 ha         1 AUG       0.149000
     24 H4           1.3220     0.8160     0.6000 ha         1 AUG       0.157000
     25 H5          -1.3790     2.5730    -0.9770 hn         1 AUG       0.455300
     26 H6          -2.8210     3.5300    -1.0500 hn         1 AUG       0.455300
     27 H7          -6.8180     1.6550     0.0180 hn         1 AUG       0.446800
     28 H8          -6.9570     0.0250     0.5600 hn         1 AUG       0.446800
     29 H9          -1.4010    -3.8480     1.2730 hn         1 AUG       0.438800
     30 H10          0.1660    -3.2820     0.8980 hn         1 AUG       0.438800
@<TRIPOS>BOND
     1     1     2 ar  
     2     1     6 ar  
     3     2     3 ar  
     4     2    18 1   
     5     3     4 ar  
     6     4     5 ar  
     7     4     7 ar  
     8     5     6 ar  
     9     5    10 ar  
    10     6    17 1   
    11     7     8 ar  
    12     8     9 ar  
    13     8    19 1   
    14     9    10 ar  
    15     9    11 1   
    16    11    12 ar  
    17    11    16 ar  
    18    12    13 ar  
    19    12    21 1   
    20    13    14 ar  
    21    13    22 1   
    22    14    15 ar  
    23    14    23 1   
    24    15    16 ar  
    25    15    20 1   
    26    16    24 1   
    27    17    25 1   
    28    17    26 1   
    29    18    27 1   
    30    18    28 1   
    31    19    29 1   
    32    19    30 1   
@<TRIPOS>SUBSTRUCTURE
     1 AUG         1 TEMP              0 ****  ****    0 ROOT
