@<TRIPOS>MOLECULE
AUG
   30    32     1     0     0
SMALL
No Charge or Current Charge


@<TRIPOS>ATOM
      1 N01         -4.4490     1.7710    -0.2500 nb         1 AUG      -0.361000
      2 C02         -5.0880     0.6990     0.2070 ca         1 AUG       0.452900
      3 N03         -4.5810    -0.5060     0.4910 nb         1 AUG      -0.288000
      4 C04         -3.2570    -0.6940     0.3050 ca         1 AUG       0.177000
      5 C05         -2.4550     0.3870    -0.1840 ca         1 AUG      -0.025000
      6 C06         -3.1400     1.6060    -0.4450 ca         1 AUG       0.476900
      7 N07         -2.6850    -1.8860     0.5860 nb         1 AUG      -0.229000
      8 C08         -1.3650    -2.0300     0.3860 ca         1 AUG       0.370900
      9 C09         -0.5520    -0.9560    -0.1190 cp         1 AUG       0.262500
     10 N10         -1.1110     0.2500    -0.3820 nb         1 AUG      -0.580000
     11 C11          0.9280    -1.0660    -0.3620 cp         1 AUG      -0.128500
     12 C12          1.4990    -2.2120    -0.9750 ca         1 AUG      -0.098000
     13 C13          2.8840    -2.3020    -1.2040 ca         1 AUG      -0.113000
     14 C14          3.7290    -1.2440    -0.8320 ca         1 AUG      -0.080000
     15 C15          3.1850    -0.0950    -0.2370 ca         1 AUG      -0.022900
     16 C16          1.8020    -0.0030    -0.0080 ca         1 AUG      -0.059000
     17 N17         -2.5060     2.7170    -0.9150 nv         1 AUG      -1.058900
     18 N18         -6.4130     0.8510     0.4050 nv         1 AUG      -1.061900
     19 N19         -0.8970    -3.2740     0.7590 nv         1 AUG      -1.064900
     20 Br           4.3310     1.3520     0.2630 br         1 AUG      -0.097100
     21 H1           0.8620    -3.0340    -1.2960 ha         1 AUG       0.126000
     22 H2           3.3010    -3.1890    -1.6760 ha         1 AUG       0.120000
     23 H3           4.8000    -1.3130    -1.0100 ha         1 AUG       0.131000
     24 H4           1.4000     0.8950     0.4560 ha         1 AUG       0.139000
     25 H5          -1.4900     2.6990    -0.8730 hn         1 AUG       0.510500
     26 H6          -2.9530     3.6180    -0.7720 hn         1 AUG       0.510500
     27 H7          -6.8650     1.6550    -0.0210 hn         1 AUG       0.502000
     28 H8          -6.9810     0.0150     0.5140 hn         1 AUG       0.502000
     29 H9          -1.5150    -3.8800     1.2960 hn         1 AUG       0.494000
     30 H10          0.1020    -3.3990     0.9110 hn         1 AUG       0.494000
@<TRIPOS>BOND
     1     1     2 ar  
     2     1     6 ar  
     3     2     3 ar  
     4     2    18 1   
     5     3     4 ar  
     6     4     5 ar  
     7     4     7 ar  
     8     5     6 ar  
     9     5    10 ar  
    10     6    17 1   
    11     7     8 ar  
    12     8     9 ar  
    13     8    19 1   
    14     9    10 ar  
    15     9    11 1   
    16    11    12 ar  
    17    11    16 ar  
    18    12    13 ar  
    19    12    21 1   
    20    13    14 ar  
    21    13    22 1   
    22    14    15 ar  
    23    14    23 1   
    24    15    16 ar  
    25    15    20 1   
    26    16    24 1   
    27    17    25 1   
    28    17    26 1   
    29    18    27 1   
    30    18    28 1   
    31    19    29 1   
    32    19    30 1   
@<TRIPOS>SUBSTRUCTURE
     1 AUG         1 TEMP              0 ****  ****    0 ROOT
