@<TRIPOS>MOLECULE
AUH
   56    59     1     0     0
SMALL
No Charge or Current Charge


@<TRIPOS>ATOM
      1 C1           6.0470     0.6110     1.7180 c3         1 AUH      -0.031100
      2 N1          -5.7440     1.0180    -0.4710 na         1 AUH      -0.316600
      3 C2           6.2900     0.0200     0.3300 ca         1 AUH      -0.050300
      4 N2          -5.7780    -1.2910    -0.5370 nc         1 AUH      -0.574100
      5 C3           7.6200    -0.0990    -0.1240 ca         1 AUH      -0.115000
      6 C4           7.9030    -0.6580    -1.3810 ca         1 AUH      -0.107000
      7 C5           6.8570    -1.1120    -2.1970 ca         1 AUH      -0.116000
      8 C6           5.5290    -1.0030    -1.7550 ca         1 AUH      -0.096000
      9 C7           5.2220    -0.4330    -0.4970 cp         1 AUH      -0.021000
     10 C8           3.7950    -0.3470    -0.0680 cp         1 AUH      -0.066000
     11 C9           3.1200    -1.5130     0.3600 ca         1 AUH      -0.069000
     12 C10          1.7770    -1.4610     0.7700 ca         1 AUH      -0.145000
     13 C11          1.0740    -0.2420     0.7550 ca         1 AUH      -0.054300
     14 C12         -0.3820    -0.1870     1.2030 c3         1 AUH       0.204100
     15 C13         -2.7240    -0.2210     0.3620 c3         1 AUH       0.158800
     16 C14         -3.5560    -0.2250    -0.9300 c3         1 AUH      -0.101700
     17 C15         -5.0310    -0.1750    -0.6470 cd         1 AUH       0.415800
     18 C16         -7.0200     0.5910    -0.2350 ca         1 AUH      -0.079200
     19 C17         -8.1680     1.3530     0.0140 ca         1 AUH      -0.117000
     20 C18         -9.3800     0.6650     0.2290 ca         1 AUH      -0.092000
     21 C19         -9.4110    -0.7480     0.1900 ca         1 AUH      -0.136000
     22 C20         -8.2300    -1.4810    -0.0640 ca         1 AUH      -0.048000
     23 C21         -7.0350    -0.7760    -0.2750 ca         1 AUH       0.068400
     24 C22          1.7270     0.9270     0.3190 ca         1 AUH      -0.178000
     25 C23          3.0770     0.8770    -0.0950 ca         1 AUH       0.147100
     26 C24          3.1450     3.2950    -0.5990 c3         1 AUH       0.146900
     27 O            3.7560     1.9940    -0.5450 os         1 AUH      -0.333100
     28 C            5.8990    -0.4750     2.8000 c3         1 AUH      -0.086100
     29 N           -1.2860    -0.2280     0.0390 n7         1 AUH      -0.865400
     30 H1           6.8760     1.2730     1.9980 hc         1 AUH       0.047200
     31 H2           5.1520     1.2430     1.7240 hc         1 AUH       0.047200
     32 H5           8.4420     0.2400     0.5030 ha         1 AUH       0.109000
     33 H6           8.9330    -0.7440    -1.7190 ha         1 AUH       0.110000
     34 H7           7.0740    -1.5500    -3.1690 ha         1 AUH       0.111000
     35 H8           4.7230    -1.3580    -2.3930 ha         1 AUH       0.113000
     36 H9           3.6500    -2.4620     0.3800 ha         1 AUH       0.119000
     37 H10          1.2830    -2.3720     1.1000 ha         1 AUH       0.114000
     38 H11         -0.5830    -1.0340     1.8740 h1         1 AUH       0.038200
     39 H12         -0.5440     0.7330     1.7820 h1         1 AUH       0.038200
     40 H13         -2.9790     0.6730     0.9480 h1         1 AUH       0.035200
     41 H14         -2.9880    -1.1020     0.9640 h1         1 AUH       0.035200
     42 H15         -3.2710     0.6350    -1.5470 hc         1 AUH       0.073200
     43 H16         -3.3200    -1.1230    -1.5130 hc         1 AUH       0.073200
     44 H17         -8.1290     2.4400     0.0400 ha         1 AUH       0.116000
     45 H18        -10.2930     1.2240     0.4250 ha         1 AUH       0.112000
     46 H19        -10.3480    -1.2750     0.3570 ha         1 AUH       0.114000
     47 H20         -8.2440    -2.5680    -0.0950 ha         1 AUH       0.128000
     48 H21          1.1700     1.8580     0.3010 ha         1 AUH       0.129000
     49 H22          3.8610     4.0340    -0.9800 h1         1 AUH       0.040700
     50 H23          2.2740     3.2890    -1.2670 h1         1 AUH       0.040700
     51 H24          2.8240     3.6160     0.4000 h1         1 AUH       0.040700
     52 H25          5.7420    -0.0170     3.7830 hc         1 AUH       0.033700
     53 H26          5.0430    -1.1250     2.5840 hc         1 AUH       0.033700
     54 H27          6.8010    -1.0960     2.8480 hc         1 AUH       0.033700
     55 H28         -1.0750    -1.0840    -0.4870 hn         1 AUH       0.416000
     56 H3          -5.3830     1.9620    -0.5120 hn         1 AUH       0.355000
@<TRIPOS>BOND
     1     1     3 1   
     2     1    28 1   
     3     1    30 1   
     4     1    31 1   
     5     2    17 1   
     6     2    18 1   
     7     2    56 1   
     8     3     5 ar  
     9     3     9 ar  
    10     4    17 2   
    11     4    23 1   
    12     5     6 ar  
    13     5    32 1   
    14     6     7 ar  
    15     6    33 1   
    16     7     8 ar  
    17     7    34 1   
    18     8     9 ar  
    19     8    35 1   
    20     9    10 1   
    21    10    11 ar  
    22    10    25 ar  
    23    11    12 ar  
    24    11    36 1   
    25    12    13 ar  
    26    12    37 1   
    27    13    14 1   
    28    13    24 ar  
    29    14    29 1   
    30    14    38 1   
    31    14    39 1   
    32    15    16 1   
    33    15    29 1   
    34    15    40 1   
    35    15    41 1   
    36    16    17 1   
    37    16    42 1   
    38    16    43 1   
    39    18    19 ar  
    40    18    23 ar  
    41    19    20 ar  
    42    19    44 1   
    43    20    21 ar  
    44    20    45 1   
    45    21    22 ar  
    46    21    46 1   
    47    22    23 ar  
    48    22    47 1   
    49    24    25 ar  
    50    24    48 1   
    51    25    27 1   
    52    26    27 1   
    53    26    49 1   
    54    26    50 1   
    55    26    51 1   
    56    28    52 1   
    57    28    53 1   
    58    28    54 1   
    59    29    55 1   
@<TRIPOS>SUBSTRUCTURE
     1 AUH         1 TEMP              0 ****  ****    0 ROOT
