@<TRIPOS>MOLECULE
AUH
   56    59     1     0     0
SMALL
abcg2


@<TRIPOS>ATOM
      1 C1           5.8750     0.9220     1.6290 c3         1 AUH      -0.031100
      2 N1          -5.5230     0.9870     0.0560 na         1 AUH      -0.316600
      3 C2           6.1880     0.2050     0.3440 ca         1 AUH      -0.050300
      4 N2          -5.7530    -0.8750    -1.1260 nc         1 AUH      -0.574100
      5 C3           7.5050     0.1600    -0.1070 ca         1 AUH      -0.115000
      6 C4           7.8610    -0.5480    -1.2470 ca         1 AUH      -0.107000
      7 C5           6.8880    -1.2340    -1.9590 ca         1 AUH      -0.116000
      8 C6           5.5710    -1.1960    -1.5240 ca         1 AUH      -0.096000
      9 C7           5.2070    -0.4830    -0.3830 cp         1 AUH      -0.021000
     10 C8           3.7820    -0.4910     0.0350 cp         1 AUH      -0.066000
     11 C9           3.2200    -1.6170     0.6140 ca         1 AUH      -0.069000
     12 C10          1.8770    -1.6580     0.9720 ca         1 AUH      -0.145000
     13 C11          1.0680    -0.5550     0.7470 ca         1 AUH      -0.054300
     14 C12         -0.3910    -0.5710     1.1170 c3         1 AUH       0.204100
     15 C13         -2.6360    -0.2730     0.2820 c3         1 AUH       0.158800
     16 C14         -3.4530     0.0530    -0.9680 c3         1 AUH      -0.101700
     17 C15         -4.9170     0.0340    -0.7040 cd         1 AUH       0.415800
     18 C16         -6.8540     0.6750     0.1280 ca         1 AUH      -0.079200
     19 C17         -7.9360     1.2820     0.7540 ca         1 AUH      -0.117000
     20 C18         -9.1670     0.6660     0.6050 ca         1 AUH      -0.092000
     21 C19         -9.3120    -0.5120    -0.1420 ca         1 AUH      -0.136000
     22 C20         -8.2280    -1.1100    -0.7620 ca         1 AUH      -0.048000
     23 C21         -6.9790    -0.5050    -0.6240 ca         1 AUH       0.068400
     24 C22          1.6140     0.5830     0.1520 ca         1 AUH      -0.178000
     25 C23          2.9580     0.6210    -0.2010 ca         1 AUH       0.147100
     26 C24          2.7920     2.8480    -1.0080 c3         1 AUH       0.146900
     27 O            3.5530     1.6790    -0.7820 os         1 AUH      -0.333100
     28 C            5.8680    -0.0330     2.8230 c3         1 AUH      -0.086100
     29 N           -1.2230    -0.2800    -0.0360 n7         1 AUH      -0.865400
     30 H1           6.6260     1.6970     1.7940 hc         1 AUH       0.047200
     31 H2           4.9140     1.4340     1.5670 hc         1 AUH       0.047200
     32 H5           8.2690     0.6930     0.4480 ha         1 AUH       0.109000
     33 H6           8.8920    -0.5630    -1.5750 ha         1 AUH       0.110000
     34 H7           7.1490    -1.7910    -2.8500 ha         1 AUH       0.111000
     35 H8           4.8070    -1.7260    -2.0790 ha         1 AUH       0.113000
     36 H9           3.8480    -2.4830     0.7880 ha         1 AUH       0.119000
     37 H10          1.4640    -2.5530     1.4210 ha         1 AUH       0.114000
     38 H11         -0.6350    -1.5340     1.5890 h1         1 AUH       0.038200
     39 H12         -0.5830     0.1980     1.8720 h1         1 AUH       0.038200
     40 H13         -2.8090     0.4900     1.0460 h1         1 AUH       0.035200
     41 H14         -2.9850    -1.2270     0.7070 h1         1 AUH       0.035200
     42 H15         -3.1540     1.0330    -1.3490 hc         1 AUH       0.073200
     43 H16         -3.2450    -0.6800    -1.7480 hc         1 AUH       0.073200
     44 H17         -7.8260     2.1910     1.3320 ha         1 AUH       0.116000
     45 H18        -10.0380     1.1030     1.0760 ha         1 AUH       0.112000
     46 H19        -10.2920    -0.9610    -0.2340 ha         1 AUH       0.114000
     47 H20         -8.3430    -2.0200    -1.3380 ha         1 AUH       0.128000
     48 H21          0.9650     1.4280    -0.0350 ha         1 AUH       0.129000
     49 H22          3.4670     3.5730    -1.4560 h1         1 AUH       0.040700
     50 H23          1.9620     2.6700    -1.6970 h1         1 AUH       0.040700
     51 H24          2.3950     3.2640    -0.0790 h1         1 AUH       0.040700
     52 H25          5.6780     0.5060     3.7520 hc         1 AUH       0.033700
     53 H26          5.0960    -0.7940     2.7120 hc         1 AUH       0.033700
     54 H27          6.8280    -0.5410     2.9220 hc         1 AUH       0.033700
     55 H28         -1.0490    -0.9830    -0.7460 hn         1 AUH       0.416000
     56 H3          -5.0730     1.7870     0.4730 hn         1 AUH       0.355000
@<TRIPOS>BOND
     1     1     3 1   
     2     1    28 1   
     3     1    30 1   
     4     1    31 1   
     5     2    17 1   
     6     2    18 1   
     7     2    56 1   
     8     3     5 ar  
     9     3     9 ar  
    10     4    17 2   
    11     4    23 1   
    12     5     6 ar  
    13     5    32 1   
    14     6     7 ar  
    15     6    33 1   
    16     7     8 ar  
    17     7    34 1   
    18     8     9 ar  
    19     8    35 1   
    20     9    10 1   
    21    10    11 ar  
    22    10    25 ar  
    23    11    12 ar  
    24    11    36 1   
    25    12    13 ar  
    26    12    37 1   
    27    13    14 1   
    28    13    24 ar  
    29    14    29 1   
    30    14    38 1   
    31    14    39 1   
    32    15    16 1   
    33    15    29 1   
    34    15    40 1   
    35    15    41 1   
    36    16    17 1   
    37    16    42 1   
    38    16    43 1   
    39    18    19 ar  
    40    18    23 ar  
    41    19    20 ar  
    42    19    44 1   
    43    20    21 ar  
    44    20    45 1   
    45    21    22 ar  
    46    21    46 1   
    47    22    23 ar  
    48    22    47 1   
    49    24    25 ar  
    50    24    48 1   
    51    25    27 1   
    52    26    27 1   
    53    26    49 1   
    54    26    50 1   
    55    26    51 1   
    56    28    52 1   
    57    28    53 1   
    58    28    54 1   
    59    29    55 1   
@<TRIPOS>SUBSTRUCTURE
     1 AUH         1 TEMP              0 ****  ****    0 ROOT
