@<TRIPOS>MOLECULE
AUI
   61    62     1     0     0
SMALL
No Charge or Current Charge


@<TRIPOS>ATOM
      1 O13          3.6060    -1.4490    -1.7160 o          1 AUI      -0.572100
      2 C1           3.9710    -0.8100    -0.7340 c          1 AUI       0.596900
      3 C4           4.8180     0.3850    -0.8980 ca         1 AUI      -0.208600
      4 C5           5.2230     0.8430    -2.1710 ca         1 AUI      -0.020000
      5 C6           6.0300     1.9870    -2.2780 ca         1 AUI      -0.161000
      6 C7           6.4310     2.6710    -1.1200 ca         1 AUI      -0.050000
      7 C8           6.0210     2.2030     0.1400 ca         1 AUI      -0.182000
      8 C9           5.2130     1.0590     0.2500 ca         1 AUI       0.321000
      9 N10          4.8410     0.6460     1.5210 na         1 AUI      -0.792000
     10 C3           4.0220    -0.4600     1.7730 cc         1 AUI       0.162800
     11 C11          3.6730    -0.7830     3.2040 c3         1 AUI      -0.067900
     12 C2           3.6060    -1.1770     0.6580 cd         1 AUI      -0.271400
     13 C12          2.7130    -2.4030     0.7780 c3         1 AUI       0.031000
     14 C14          1.2470    -2.0110     0.6960 c2         1 AUI      -0.225200
     15 C15          0.3330    -2.3290    -0.2440 c2         1 AUI      -0.096400
     16 C26          0.5760    -3.1930    -1.4770 c3         1 AUI      -0.051900
     17 C16         -1.1040    -1.8350    -0.1490 c3         1 AUI      -0.038200
     18 C17         -1.3940    -0.6360    -1.0770 c3         1 AUI      -0.037200
     19 C18         -2.7980    -0.0890    -0.8860 c2         1 AUI      -0.219200
     20 C19         -3.2080     0.8280     0.0120 c2         1 AUI      -0.106400
     21 C27         -2.3120     1.4990     1.0470 c3         1 AUI      -0.054900
     22 C20         -4.6520     1.3160     0.0480 c3         1 AUI      -0.071200
     23 C21         -5.5770     0.4840     0.9730 c3         1 AUI       0.209500
     24 O28         -5.2950     0.7730     2.3430 oh         1 AUI      -0.650000
     25 C22         -7.0420     0.7790     0.7160 c2         1 AUI      -0.264200
     26 C23         -7.8140     0.2680    -0.2620 c2         1 AUI      -0.088400
     27 C24         -9.2760     0.6400    -0.4220 c3         1 AUI      -0.059900
     28 C25         -7.3510    -0.7230    -1.3200 c3         1 AUI      -0.059900
     29 H1           4.9160     0.3180    -3.0740 ha         1 AUI       0.137000
     30 H2           6.3440     2.3430    -3.2570 ha         1 AUI       0.119000
     31 H3           7.0570     3.5580    -1.1980 ha         1 AUI       0.114000
     32 H4           6.3350     2.7370     1.0330 ha         1 AUI       0.113000
     33 H5           4.0180    -0.0030     3.8920 hc         1 AUI       0.057033
     34 H6           2.5890    -0.8770     3.3320 hc         1 AUI       0.057033
     35 H7           4.1360    -1.7270     3.5120 hc         1 AUI       0.057033
     36 H9           2.9860    -3.1590     0.0350 hc         1 AUI       0.052200
     37 H10          2.8890    -2.9110     1.7340 hc         1 AUI       0.052200
     38 H11          0.9400    -1.3830     1.5320 ha         1 AUI       0.156000
     39 H12         -0.1010    -4.0550    -1.4900 hc         1 AUI       0.041700
     40 H13          0.4050    -2.6240    -2.3980 hc         1 AUI       0.041700
     41 H14          1.5930    -3.5890    -1.5370 hc         1 AUI       0.041700
     42 H15         -1.8080    -2.6480    -0.3690 hc         1 AUI       0.043200
     43 H16         -1.3230    -1.5250     0.8800 hc         1 AUI       0.043200
     44 H17         -0.6450     0.1440    -0.8990 hc         1 AUI       0.048200
     45 H18         -1.2610    -0.9400    -2.1220 hc         1 AUI       0.048200
     46 H19         -3.5170    -0.5060    -1.5930 ha         1 AUI       0.162000
     47 H20         -2.2840     2.5840     0.8970 hc         1 AUI       0.040700
     48 H21         -2.6710     1.3130     2.0660 hc         1 AUI       0.040700
     49 H22         -1.2780     1.1410     1.0120 hc         1 AUI       0.040700
     50 H23         -4.7060     2.3790     0.3150 hc         1 AUI       0.047700
     51 H24         -5.0630     1.2560    -0.9670 hc         1 AUI       0.047700
     52 H25         -5.3900    -0.5820     0.7790 h1         1 AUI       0.077700
     53 H26         -5.3460     1.7470     2.4400 ho         1 AUI       0.434000
     54 H27         -7.4780     1.4880     1.4200 ha         1 AUI       0.165000
     55 H28         -9.4620     1.1000    -1.4000 hc         1 AUI       0.041200
     56 H29         -9.9200    -0.2440    -0.3400 hc         1 AUI       0.041200
     57 H30         -9.6020     1.3540     0.3440 hc         1 AUI       0.041200
     58 H31         -7.9250    -1.6560    -1.2600 hc         1 AUI       0.041200
     59 H32         -7.4900    -0.3130    -2.3270 hc         1 AUI       0.041200
     60 H33         -6.2930    -0.9870    -1.2240 hc         1 AUI       0.041200
     61 H34          5.1810     1.1910     2.3100 hn         1 AUI       0.501000
@<TRIPOS>BOND
     1     1     2 2   
     2     2     3 1   
     3     2    12 1   
     4     3     4 ar  
     5     3     8 ar  
     6     4     5 ar  
     7     4    29 1   
     8     5     6 ar  
     9     5    30 1   
    10     6     7 ar  
    11     6    31 1   
    12     7     8 ar  
    13     7    32 1   
    14     8     9 1   
    15     9    10 1   
    16     9    61 1   
    17    10    11 1   
    18    10    12 2   
    19    11    33 1   
    20    11    34 1   
    21    11    35 1   
    22    12    13 1   
    23    13    14 1   
    24    13    36 1   
    25    13    37 1   
    26    14    15 2   
    27    14    38 1   
    28    15    16 1   
    29    15    17 1   
    30    16    39 1   
    31    16    40 1   
    32    16    41 1   
    33    17    18 1   
    34    17    42 1   
    35    17    43 1   
    36    18    19 1   
    37    18    44 1   
    38    18    45 1   
    39    19    20 2   
    40    19    46 1   
    41    20    21 1   
    42    20    22 1   
    43    21    47 1   
    44    21    48 1   
    45    21    49 1   
    46    22    23 1   
    47    22    50 1   
    48    22    51 1   
    49    23    24 1   
    50    23    25 1   
    51    23    52 1   
    52    24    53 1   
    53    25    26 2   
    54    25    54 1   
    55    26    27 1   
    56    26    28 1   
    57    27    55 1   
    58    27    56 1   
    59    27    57 1   
    60    28    58 1   
    61    28    59 1   
    62    28    60 1   
@<TRIPOS>SUBSTRUCTURE
     1 AUI         1 TEMP              0 ****  ****    0 ROOT
