@<TRIPOS>MOLECULE
AUI
   61    62     1     0     0
SMALL
bcc


@<TRIPOS>ATOM
      1 O13          3.5700    -1.2950    -1.7240 o          1 AUI      -0.572100
      2 C1           3.9190    -0.7630    -0.6680 c          1 AUI       0.596900
      3 C4           4.7470     0.4500    -0.6650 ca         1 AUI      -0.208600
      4 C5           5.1630     1.0450    -1.8640 ca         1 AUI      -0.038000
      5 C6           5.9320     2.1850    -1.8580 ca         1 AUI      -0.179000
      6 C7           6.3090     2.7630    -0.6390 ca         1 AUI      -0.068000
      7 C8           5.9170     2.2020     0.5540 ca         1 AUI      -0.200000
      8 C9           5.1320     1.0400     0.5440 ca         1 AUI       0.182600
      9 N10          4.7280     0.4680     1.7160 na         1 AUI      -0.598400
     10 C3           3.9620    -0.6470     1.7710 cc         1 AUI       0.162800
     11 C11          3.6060    -1.1210     3.1460 c3         1 AUI      -0.067900
     12 C2           3.5540    -1.2800     0.6290 cd         1 AUI      -0.271400
     13 C12          2.6570    -2.4890     0.6770 c3         1 AUI       0.031000
     14 C14          1.2150    -2.0780     0.5830 c2         1 AUI      -0.175200
     15 C15          0.3490    -2.3150    -0.4050 c2         1 AUI      -0.096400
     16 C26          0.6570    -3.1080    -1.6390 c3         1 AUI      -0.051900
     17 C16         -1.0440    -1.7470    -0.3330 c3         1 AUI      -0.038200
     18 C17         -1.2680    -0.5820    -1.3120 c3         1 AUI      -0.037200
     19 C18         -2.6700    -0.0610    -1.2400 c2         1 AUI      -0.169200
     20 C19         -3.1160     0.9700    -0.5170 c2         1 AUI      -0.106400
     21 C27         -2.2360     1.8400     0.3310 c3         1 AUI      -0.054900
     22 C20         -4.5900     1.2950    -0.5180 c3         1 AUI      -0.071200
     23 C21         -5.3770     0.6380     0.6260 c3         1 AUI       0.186300
     24 O28         -4.8750     0.9870     1.9040 oh         1 AUI      -0.587800
     25 C22         -6.8350     0.9770     0.5140 c2         1 AUI      -0.214200
     26 C23         -7.8300     0.1830     0.1120 c2         1 AUI      -0.088400
     27 C24         -9.2390     0.6920     0.0250 c3         1 AUI      -0.059900
     28 C25         -7.6680    -1.2490    -0.3040 c3         1 AUI      -0.059900
     29 H1           4.8670     0.5900    -2.8000 ha         1 AUI       0.155000
     30 H2           6.2430     2.6380    -2.7900 ha         1 AUI       0.137000
     31 H3           6.9140     3.6600    -0.6310 ha         1 AUI       0.132000
     32 H4           6.2050     2.6490     1.4980 ha         1 AUI       0.131000
     33 H5           3.9810    -0.4470     3.9140 hc         1 AUI       0.057033
     34 H6           2.5260    -1.1950     3.2660 hc         1 AUI       0.057033
     35 H7           4.0230    -2.1100     3.3360 hc         1 AUI       0.057033
     36 H9           2.9270    -3.1680    -0.1310 hc         1 AUI       0.052200
     37 H10          2.8140    -3.0410     1.6070 hc         1 AUI       0.052200
     38 H11          0.8600    -1.4850     1.4250 ha         1 AUI       0.106000
     39 H12         -0.0970    -3.8840    -1.7890 hc         1 AUI       0.041700
     40 H13          0.6390    -2.4760    -2.5290 hc         1 AUI       0.041700
     41 H14          1.6330    -3.5880    -1.6090 hc         1 AUI       0.041700
     42 H15         -1.7780    -2.5330    -0.5430 hc         1 AUI       0.043200
     43 H16         -1.2510    -1.3910     0.6790 hc         1 AUI       0.043200
     44 H17         -0.5360     0.2000    -1.0950 hc         1 AUI       0.048200
     45 H18         -1.0650    -0.9180    -2.3330 hc         1 AUI       0.048200
     46 H19         -3.4020    -0.6260    -1.8140 ha         1 AUI       0.112000
     47 H20         -2.4520     2.8960     0.1550 hc         1 AUI       0.040700
     48 H21         -2.4150     1.6570     1.3920 hc         1 AUI       0.040700
     49 H22         -1.1750     1.6830     0.1460 hc         1 AUI       0.040700
     50 H23         -4.7410     2.3810    -0.4800 hc         1 AUI       0.047700
     51 H24         -5.0430     0.9550    -1.4530 hc         1 AUI       0.047700
     52 H25         -5.2270    -0.4410     0.5490 h1         1 AUI       0.077700
     53 H26         -4.9290     1.9440     2.0010 ho         1 AUI       0.395000
     54 H27         -7.0780     2.0090     0.7670 ha         1 AUI       0.115000
     55 H28         -9.6310     0.5780    -0.9890 hc         1 AUI       0.041200
     56 H29         -9.9020     0.1190     0.6790 hc         1 AUI       0.041200
     57 H30         -9.3190     1.7430     0.3000 hc         1 AUI       0.041200
     58 H31         -8.3630    -1.8890     0.2440 hc         1 AUI       0.041200
     59 H32         -7.9120    -1.3650    -1.3630 hc         1 AUI       0.041200
     60 H33         -6.6640    -1.6420    -0.1550 hc         1 AUI       0.041200
     61 H34          5.0050     0.9060     2.5820 hn         1 AUI       0.445800
@<TRIPOS>BOND
     1     1     2 2   
     2     2     3 1   
     3     2    12 1   
     4     3     4 ar  
     5     3     8 ar  
     6     4     5 ar  
     7     4    29 1   
     8     5     6 ar  
     9     5    30 1   
    10     6     7 ar  
    11     6    31 1   
    12     7     8 ar  
    13     7    32 1   
    14     8     9 1   
    15     9    10 1   
    16     9    61 1   
    17    10    11 1   
    18    10    12 2   
    19    11    33 1   
    20    11    34 1   
    21    11    35 1   
    22    12    13 1   
    23    13    14 1   
    24    13    36 1   
    25    13    37 1   
    26    14    15 2   
    27    14    38 1   
    28    15    16 1   
    29    15    17 1   
    30    16    39 1   
    31    16    40 1   
    32    16    41 1   
    33    17    18 1   
    34    17    42 1   
    35    17    43 1   
    36    18    19 1   
    37    18    44 1   
    38    18    45 1   
    39    19    20 2   
    40    19    46 1   
    41    20    21 1   
    42    20    22 1   
    43    21    47 1   
    44    21    48 1   
    45    21    49 1   
    46    22    23 1   
    47    22    50 1   
    48    22    51 1   
    49    23    24 1   
    50    23    25 1   
    51    23    52 1   
    52    24    53 1   
    53    25    26 2   
    54    25    54 1   
    55    26    27 1   
    56    26    28 1   
    57    27    55 1   
    58    27    56 1   
    59    27    57 1   
    60    28    58 1   
    61    28    59 1   
    62    28    60 1   
@<TRIPOS>SUBSTRUCTURE
     1 AUI         1 TEMP              0 ****  ****    0 ROOT
