@<TRIPOS>MOLECULE
AUK
   61    62     1     0     0
SMALL
No Charge or Current Charge


@<TRIPOS>ATOM
      1 O27         -3.1450     1.0500    -1.9030 o          1 AUK      -0.567100
      2 C7          -3.5070     0.5570    -0.8390 c          1 AUK       0.593900
      3 C8          -3.2490     1.1680     0.4840 cc         1 AUK      -0.264400
      4 C9          -3.7980     0.6720     1.6640 cd         1 AUK       0.176800
      5 C28         -3.5260     1.2620     3.0340 c3         1 AUK      -0.065900
      6 N10         -4.7780    -0.3420     1.5380 na         1 AUK      -0.456700
      7 O26         -5.6760    -0.5960     2.6050 oh         1 AUK      -0.369300
      8 C3          -4.7400    -1.1770     0.4030 ca         1 AUK       0.327000
      9 C4          -5.3360    -2.4570     0.4600 ca         1 AUK      -0.165000
     10 C5          -5.3820    -3.2880    -0.6710 ca         1 AUK      -0.055000
     11 C6          -4.8340    -2.8430    -1.8820 ca         1 AUK      -0.155000
     12 C1          -4.2330    -1.5770    -1.9520 ca         1 AUK      -0.023000
     13 C2          -4.1820    -0.7540    -0.8050 ca         1 AUK      -0.206600
     14 C11         -2.3450     2.3890     0.4350 c3         1 AUK       0.030000
     15 C12         -0.8800     1.9850     0.4250 c2         1 AUK      -0.227200
     16 C13          0.1320     2.5250    -0.2810 c2         1 AUK      -0.095400
     17 C23          0.0220     3.7280    -1.2110 c3         1 AUK      -0.056900
     18 C14          1.5460     1.9650    -0.2030 c3         1 AUK      -0.039200
     19 C15          1.9410     1.1450    -1.4500 c3         1 AUK      -0.037200
     20 C16          3.3050     0.4940    -1.2990 c2         1 AUK      -0.219200
     21 C17          3.5880    -0.6970    -0.7360 c2         1 AUK      -0.115400
     22 C24          2.5630    -1.6350    -0.1080 c3         1 AUK      -0.054900
     23 C18          5.0070    -1.2450    -0.6870 c3         1 AUK      -0.037200
     24 C19          5.6750    -1.0810     0.6950 c3         1 AUK      -0.036200
     25 C20          7.1200    -1.5470     0.6940 c2         1 AUK      -0.223200
     26 C21          8.2140    -0.8240     0.3880 c2         1 AUK      -0.112400
     27 C22          8.2130     0.6300    -0.0600 c3         1 AUK      -0.055900
     28 C25          9.6150    -1.4050     0.4530 c3         1 AUK      -0.055900
     29 H28         -4.1710     2.1280     3.2220 hc         1 AUK       0.060700
     30 H28A        -3.6950     0.5340     3.8350 hc         1 AUK       0.060700
     31 H28B        -2.4850     1.5870     3.1300 hc         1 AUK       0.060700
     32 HO26        -6.4930    -0.0680     2.4430 ho         1 AUK       0.449000
     33 H4          -5.7740    -2.8160     1.3870 ha         1 AUK       0.126000
     34 H5          -5.8460    -4.2700    -0.6100 ha         1 AUK       0.115000
     35 H6          -4.8680    -3.4790    -2.7630 ha         1 AUK       0.121000
     36 H1          -3.7970    -1.2450    -2.8920 ha         1 AUK       0.139000
     37 H11         -2.6010     3.0100    -0.4300 hc         1 AUK       0.055700
     38 H11A        -2.5320     3.0420     1.2950 hc         1 AUK       0.055700
     39 H12         -0.6770     1.1270     1.0670 ha         1 AUK       0.158000
     40 H23          0.7800     4.4830    -0.9680 hc         1 AUK       0.043700
     41 H23A         0.1680     3.4360    -2.2570 hc         1 AUK       0.043700
     42 H23B        -0.9480     4.2320    -1.1470 hc         1 AUK       0.043700
     43 H14          2.2730     2.7730    -0.0500 hc         1 AUK       0.042700
     44 H14A         1.6390     1.3130     0.6740 hc         1 AUK       0.042700
     45 H15          1.1690     0.3910    -1.6410 hc         1 AUK       0.048700
     46 H15A         1.9440     1.7970    -2.3310 hc         1 AUK       0.048700
     47 H16          4.1130     1.0920    -1.7230 ha         1 AUK       0.165000
     48 H24          2.5420    -2.5980    -0.6300 hc         1 AUK       0.038700
     49 H24A         2.7980    -1.8330     0.9440 hc         1 AUK       0.038700
     50 H24B         1.5460    -1.2320    -0.1310 hc         1 AUK       0.038700
     51 H18          5.0210    -2.3030    -0.9780 hc         1 AUK       0.044700
     52 H18A         5.6300    -0.7260    -1.4260 hc         1 AUK       0.044700
     53 H19          5.6050    -0.0310     1.0030 hc         1 AUK       0.044700
     54 H19A         5.1100    -1.6470     1.4450 hc         1 AUK       0.044700
     55 H20          7.2320    -2.5890     1.0000 ha         1 AUK       0.164000
     56 H22          8.7480     1.2620     0.6590 hc         1 AUK       0.038367
     57 H22A         8.7090     0.7410    -1.0310 hc         1 AUK       0.038367
     58 H22B         7.2040     1.0430    -0.1690 hc         1 AUK       0.038367
     59 H25          9.6080    -2.4520     0.7780 hc         1 AUK       0.038367
     60 H25A        10.1040    -1.3690    -0.5280 hc         1 AUK       0.038367
     61 H25B        10.2410    -0.8460     1.1600 hc         1 AUK       0.038367
@<TRIPOS>BOND
     1     1     2 2   
     2     2     3 1   
     3     2    13 1   
     4     3     4 2   
     5     3    14 1   
     6     4     5 1   
     7     4     6 1   
     8     5    29 1   
     9     5    30 1   
    10     5    31 1   
    11     6     7 1   
    12     6     8 1   
    13     7    32 1   
    14     8     9 ar  
    15     8    13 ar  
    16     9    10 ar  
    17     9    33 1   
    18    10    11 ar  
    19    10    34 1   
    20    11    12 ar  
    21    11    35 1   
    22    12    13 ar  
    23    12    36 1   
    24    14    15 1   
    25    14    37 1   
    26    14    38 1   
    27    15    16 2   
    28    15    39 1   
    29    16    17 1   
    30    16    18 1   
    31    17    40 1   
    32    17    41 1   
    33    17    42 1   
    34    18    19 1   
    35    18    43 1   
    36    18    44 1   
    37    19    20 1   
    38    19    45 1   
    39    19    46 1   
    40    20    21 2   
    41    20    47 1   
    42    21    22 1   
    43    21    23 1   
    44    22    48 1   
    45    22    49 1   
    46    22    50 1   
    47    23    24 1   
    48    23    51 1   
    49    23    52 1   
    50    24    25 1   
    51    24    53 1   
    52    24    54 1   
    53    25    26 2   
    54    25    55 1   
    55    26    27 1   
    56    26    28 1   
    57    27    56 1   
    58    27    57 1   
    59    27    58 1   
    60    28    59 1   
    61    28    60 1   
    62    28    61 1   
@<TRIPOS>SUBSTRUCTURE
     1 AUK         1 TEMP              0 ****  ****    0 ROOT
