@<TRIPOS>MOLECULE
AUK
   61    62     1     0     0
SMALL
bcc


@<TRIPOS>ATOM
      1 O27         -3.2760     1.3950    -1.9110 o          1 AUK      -0.567100
      2 C7          -3.5930     0.8280    -0.8630 c          1 AUK       0.593900
      3 C8          -3.1540     1.2840     0.4380 cc         1 AUK      -0.264400
      4 C9          -3.5250     0.6160     1.5740 cd         1 AUK       0.176800
      5 C28         -3.0870     0.9930     2.9530 c3         1 AUK      -0.065900
      6 N10         -4.3430    -0.4720     1.4950 na         1 AUK      -0.318300
      7 O26         -4.6270    -1.1500     2.6390 oh         1 AUK      -0.330300
      8 C3          -4.8040    -1.0020     0.3180 ca         1 AUK       0.188600
      9 C4          -5.6120    -2.1490     0.2960 ca         1 AUK      -0.183000
     10 C5          -6.0550    -2.6360    -0.9130 ca         1 AUK      -0.073000
     11 C6          -5.7120    -2.0070    -2.1150 ca         1 AUK      -0.173000
     12 C1          -4.9180    -0.8850    -2.0880 ca         1 AUK      -0.041000
     13 C2          -4.4470    -0.3620    -0.8760 ca         1 AUK      -0.206600
     14 C11         -2.2250     2.4710     0.4610 c3         1 AUK       0.030000
     15 C12         -0.7900     2.0340     0.3890 c2         1 AUK      -0.177200
     16 C13          0.0970     2.2670    -0.5810 c2         1 AUK      -0.095400
     17 C23         -0.1760     3.0630    -1.8210 c3         1 AUK      -0.056900
     18 C14          1.4920     1.7080    -0.4730 c3         1 AUK      -0.039200
     19 C15          1.7140     0.4800    -1.3720 c3         1 AUK      -0.037200
     20 C16          3.1340     0.0040    -1.3170 c2         1 AUK      -0.169200
     21 C17          3.6300    -0.9840    -0.5680 c2         1 AUK      -0.115400
     22 C24          2.8060    -1.8330     0.3560 c3         1 AUK      -0.054900
     23 C18          5.1030    -1.2940    -0.5910 c3         1 AUK      -0.037200
     24 C19          5.8120    -0.9620     0.7310 c3         1 AUK      -0.036200
     25 C20          7.2590    -1.3440     0.6960 c2         1 AUK      -0.173200
     26 C21          8.3160    -0.5360     0.5780 c2         1 AUK      -0.112400
     27 C22          8.2370     0.9580     0.4700 c3         1 AUK      -0.055900
     28 C25          9.7120    -1.0870     0.5370 c3         1 AUK      -0.055900
     29 H28         -3.9380     1.2290     3.5930 hc         1 AUK       0.060700
     30 H28A        -2.5360     0.1810     3.4270 hc         1 AUK       0.060700
     31 H28B        -2.4410     1.8630     2.9330 hc         1 AUK       0.060700
     32 HO26        -5.4600    -0.7900     2.9800 ho         1 AUK       0.410000
     33 H4          -5.8850    -2.6520     1.2110 ha         1 AUK       0.144000
     34 H5          -6.6780    -3.5210    -0.9260 ha         1 AUK       0.133000
     35 H6          -6.0680    -2.4030    -3.0560 ha         1 AUK       0.139000
     36 H1          -4.6430    -0.3870    -3.0080 ha         1 AUK       0.157000
     37 H11         -2.4760     3.1270    -0.3710 hc         1 AUK       0.055700
     38 H11A        -2.3760     3.0680     1.3630 hc         1 AUK       0.055700
     39 H12         -0.4540     1.4460     1.2420 ha         1 AUK       0.108000
     40 H23          0.3900     3.9990    -1.8030 hc         1 AUK       0.043700
     41 H23A         0.1540     2.5240    -2.7120 hc         1 AUK       0.043700
     42 H23B        -1.2280     3.3020    -1.9580 hc         1 AUK       0.043700
     43 H14          2.2210     2.4810    -0.7400 hc         1 AUK       0.042700
     44 H14A         1.7040     1.4220     0.5600 hc         1 AUK       0.042700
     45 H15          1.0150    -0.3030    -1.0700 hc         1 AUK       0.048700
     46 H15A         1.4640     0.7330    -2.4060 hc         1 AUK       0.048700
     47 H16          3.8330     0.5670    -1.9310 ha         1 AUK       0.115000
     48 H24          3.0390    -2.8910     0.2200 hc         1 AUK       0.038700
     49 H24A         3.0180    -1.6000     1.4030 hc         1 AUK       0.038700
     50 H24B         1.7340    -1.7060     0.2120 hc         1 AUK       0.038700
     51 H18          5.2490    -2.3580    -0.8110 hc         1 AUK       0.044700
     52 H18A         5.5890    -0.7390    -1.3970 hc         1 AUK       0.044700
     53 H19          5.6790     0.1000     0.9460 hc         1 AUK       0.044700
     54 H19A         5.3250    -1.5030     1.5480 hc         1 AUK       0.044700
     55 H20          7.4490    -2.4140     0.7450 ha         1 AUK       0.114000
     56 H22          8.7710     1.4340     1.2970 hc         1 AUK       0.038367
     57 H22A         8.7250     1.2980    -0.4470 hc         1 AUK       0.038367
     58 H22B         7.2190     1.3410     0.4640 hc         1 AUK       0.038367
     59 H25          9.7290    -2.1740     0.6160 hc         1 AUK       0.038367
     60 H25A        10.2170    -0.8060    -0.3910 hc         1 AUK       0.038367
     61 H25B        10.3170    -0.6800     1.3530 hc         1 AUK       0.038367
@<TRIPOS>BOND
     1     1     2 2   
     2     2     3 1   
     3     2    13 1   
     4     3     4 2   
     5     3    14 1   
     6     4     5 1   
     7     4     6 1   
     8     5    29 1   
     9     5    30 1   
    10     5    31 1   
    11     6     7 1   
    12     6     8 1   
    13     7    32 1   
    14     8     9 ar  
    15     8    13 ar  
    16     9    10 ar  
    17     9    33 1   
    18    10    11 ar  
    19    10    34 1   
    20    11    12 ar  
    21    11    35 1   
    22    12    13 ar  
    23    12    36 1   
    24    14    15 1   
    25    14    37 1   
    26    14    38 1   
    27    15    16 2   
    28    15    39 1   
    29    16    17 1   
    30    16    18 1   
    31    17    40 1   
    32    17    41 1   
    33    17    42 1   
    34    18    19 1   
    35    18    43 1   
    36    18    44 1   
    37    19    20 1   
    38    19    45 1   
    39    19    46 1   
    40    20    21 2   
    41    20    47 1   
    42    21    22 1   
    43    21    23 1   
    44    22    48 1   
    45    22    49 1   
    46    22    50 1   
    47    23    24 1   
    48    23    51 1   
    49    23    52 1   
    50    24    25 1   
    51    24    53 1   
    52    24    54 1   
    53    25    26 2   
    54    25    55 1   
    55    26    27 1   
    56    26    28 1   
    57    27    56 1   
    58    27    57 1   
    59    27    58 1   
    60    28    59 1   
    61    28    60 1   
    62    28    61 1   
@<TRIPOS>SUBSTRUCTURE
     1 AUK         1 TEMP              0 ****  ****    0 ROOT
