@<TRIPOS>MOLECULE
AUN
   50    53     1     0     0
SMALL
abcg2


@<TRIPOS>ATOM
      1 C10         -8.1500    -0.8900    -0.1810 cc         1 AUN       0.300500
      2 N12        -10.2840    -0.7650    -0.6310 na         1 AUN      -0.164500
      3 C13        -11.5940    -0.2910    -1.0160 c3         1 AUN       0.058900
      4 C21          3.6000     1.6230    -0.4190 cc         1 AUN      -0.162000
      5 C22          3.3830     2.8620    -0.9630 cd         1 AUN       0.275900
      6 C24          4.8170     0.8560    -0.2220 ca         1 AUN       0.018000
      7 C26          7.2380     0.7810    -0.1410 ca         1 AUN      -0.078000
      8 C01         -2.2840     2.1500     1.7470 c3         1 AUN      -0.126100
      9 C02         -2.0550     1.2920     0.5060 c3         1 AUN       0.105300
     10 C04         -3.9880    -0.1060     0.4230 ca         1 AUN       0.134100
     11 C05         -4.5110    -1.3810     0.6320 ca         1 AUN      -0.170000
     12 C06         -5.8560    -1.6280     0.4360 ca         1 AUN      -0.061000
     13 C07         -6.7290    -0.6160     0.0280 ca         1 AUN      -0.129500
     14 C08         -6.1910     0.6530    -0.1730 ca         1 AUN      -0.061000
     15 C09         -4.8430     0.9170     0.0200 ca         1 AUN      -0.170000
     16 C11         -9.1390    -0.0260    -0.5820 cd         1 AUN      -0.219000
     17 C14         -9.9560    -2.0210    -0.2670 cd         1 AUN       0.394400
     18 N15         -8.6840    -2.1340     0.0110 nc         1 AUN      -0.670000
     19 C16         -0.5650     1.0260     0.3410 c          1 AUN       0.614100
     20 O17         -0.0250     0.0110     0.7310 o          1 AUN      -0.565100
     21 N18          0.1050     2.0560    -0.2340 ns         1 AUN      -0.481400
     22 C19          1.4700     2.1310    -0.4220 cc         1 AUN       0.533400
     23 N20          2.3430     1.1700    -0.0810 na         1 AUN      -0.293500
     24 N23          2.0540     3.1690    -0.9610 nd         1 AUN      -0.719000
     25 C25          6.0610     1.4880    -0.3040 ca         1 AUN      -0.107000
     26 C27          7.1840    -0.5810     0.1210 ca         1 AUN      -0.021900
     27 C29          5.9650    -1.2340     0.2150 ca         1 AUN      -0.078000
     28 C30          4.7930    -0.5150     0.0410 ca         1 AUN      -0.107000
     29 BR1          8.7850    -1.5510     0.3560 br         1 AUN      -0.095100
     30 H1         -11.5910     0.0430    -2.0520 h1         1 AUN       0.054367
     31 H2         -12.3100    -1.1010    -0.9120 h1         1 AUN       0.054367
     32 H3         -11.9030     0.5340    -0.3780 h1         1 AUN       0.054367
     33 H4           4.1150     3.5430    -1.3690 h4         1 AUN       0.041100
     34 H5           8.1850     1.3000    -0.2120 ha         1 AUN       0.130500
     35 H6          -1.8380     3.1370     1.6220 hc         1 AUN       0.057367
     36 H7          -3.3480     2.2930     1.9310 hc         1 AUN       0.057367
     37 H8          -1.8430     1.6830     2.6280 hc         1 AUN       0.057367
     38 H9          -2.4180     1.8150    -0.3860 h1         1 AUN       0.056700
     39 H10         -3.8530    -2.1820     0.9460 ha         1 AUN       0.121000
     40 H11         -6.2380    -2.6270     0.6040 ha         1 AUN       0.122500
     41 H12         -6.8270     1.4720    -0.4860 ha         1 AUN       0.122500
     42 H13         -4.4890     1.9240    -0.1520 ha         1 AUN       0.121000
     43 H14         -9.1320     1.0230    -0.8290 h4         1 AUN       0.156000
     44 H15        -10.6880    -2.8140    -0.2220 h5         1 AUN       0.055100
     45 H16         -0.4080     2.8570    -0.5720 hn         1 AUN       0.350500
     46 H17          2.0960     0.3030     0.3730 hn         1 AUN       0.385000
     47 H19          6.1190     2.5540    -0.4870 ha         1 AUN       0.118500
     48 H20          5.9120    -2.2960     0.4150 ha         1 AUN       0.130500
     49 H21          3.8560    -1.0560     0.1020 ha         1 AUN       0.118500
     50 O03         -2.6550     0.0250     0.6200 os         1 AUN      -0.322100
@<TRIPOS>BOND
     1     1    13 1   
     2     1    16 2   
     3     1    18 1   
     4     2     3 1   
     5     2    16 1   
     6     2    17 1   
     7     3    30 1   
     8     3    31 1   
     9     3    32 1   
    10     4     5 2   
    11     4     6 1   
    12     4    23 1   
    13     5    24 1   
    14     5    33 1   
    15     6    25 ar  
    16     6    28 ar  
    17     7    25 ar  
    18     7    26 ar  
    19     7    34 1   
    20     8     9 1   
    21     8    35 1   
    22     8    36 1   
    23     8    37 1   
    24     9    19 1   
    25     9    38 1   
    26     9    50 1   
    27    10    11 ar  
    28    10    15 ar  
    29    10    50 1   
    30    11    12 ar  
    31    11    39 1   
    32    12    13 ar  
    33    12    40 1   
    34    13    14 ar  
    35    14    15 ar  
    36    14    41 1   
    37    15    42 1   
    38    16    43 1   
    39    17    18 2   
    40    17    44 1   
    41    19    20 2   
    42    19    21 1   
    43    21    22 1   
    44    21    45 1   
    45    22    23 1   
    46    22    24 2   
    47    23    46 1   
    48    25    47 1   
    49    26    27 ar  
    50    26    29 1   
    51    27    28 ar  
    52    27    48 1   
    53    28    49 1   
@<TRIPOS>SUBSTRUCTURE
     1 AUN         1 TEMP              0 ****  ****    0 ROOT
