@<TRIPOS>MOLECULE
AUN
   50    53     1     0     0
SMALL
No Charge or Current Charge


@<TRIPOS>ATOM
      1 C10         -8.3260    -0.9600    -0.2650 cc         1 AUN       0.300500
      2 N12        -10.4280    -0.6060    -0.6820 na         1 AUN      -0.164500
      3 C13        -11.7210     0.0210    -0.9890 c3         1 AUN       0.058900
      4 C21          3.6880     1.5450    -0.3440 cc         1 AUN      -0.162000
      5 C22          3.4440     2.7870    -0.8810 cd         1 AUN       0.275900
      6 C24          5.0100     0.9150    -0.2350 ca         1 AUN       0.018000
      7 C26          7.4350     0.9450    -0.5780 ca         1 AUN      -0.078000
      8 C01         -2.4650     1.9790     1.8020 c3         1 AUN      -0.126100
      9 C02         -2.0660     1.1340     0.5650 c3         1 AUN       0.105300
     10 C04         -4.1230    -0.2760     0.4200 ca         1 AUN       0.134100
     11 C05         -4.7080    -1.5120     0.7290 ca         1 AUN      -0.170000
     12 C06         -6.0790    -1.7310     0.5100 ca         1 AUN      -0.061000
     13 C07         -6.8960    -0.7080    -0.0210 ca         1 AUN      -0.129500
     14 C08         -6.2960     0.5280    -0.3520 ca         1 AUN      -0.061000
     15 C09         -4.9240     0.7450    -0.1330 ca         1 AUN      -0.170000
     16 C11         -9.2140     0.0440    -0.5370 cd         1 AUN      -0.219000
     17 C14        -10.2010    -1.9650    -0.4860 cd         1 AUN       0.394400
     18 N15         -8.9180    -2.1890    -0.2250 nc         1 AUN      -0.670000
     19 C16         -0.5260     0.9110     0.5180 c          1 AUN       0.614100
     20 O17          0.0170    -0.1210     0.8980 o          1 AUN      -0.565100
     21 N18          0.1890     1.9400    -0.0500 ns         1 AUN      -0.481400
     22 C19          1.5320     2.0060    -0.2630 cc         1 AUN       0.533400
     23 N20          2.4620     1.0540     0.0470 na         1 AUN      -0.293500
     24 N23          2.0880     3.0600    -0.8220 nd         1 AUN      -0.719000
     25 C25          6.1780     1.5660    -0.6920 ca         1 AUN      -0.107000
     26 C27          7.5390    -0.3320    -0.0070 ca         1 AUN      -0.021900
     27 C29          6.3880    -0.9910     0.4510 ca         1 AUN      -0.078000
     28 C30          5.1310    -0.3700     0.3370 ca         1 AUN      -0.107000
     29 Br1          9.2480    -1.1760     0.1470 br         1 AUN      -0.095100
     30 H1         -11.8520     0.0780    -2.0760 h1         1 AUN       0.054367
     31 H2         -12.5350    -0.5740    -0.5560 h1         1 AUN       0.054367
     32 H3         -11.7510     1.0330    -0.5660 h1         1 AUN       0.054367
     33 H4           4.1450     3.4980    -1.3020 h4         1 AUN       0.041100
     34 H5           8.3280     1.4560    -0.9340 ha         1 AUN       0.130500
     35 H6          -1.9510     2.9480     1.7890 hc         1 AUN       0.057367
     36 H7          -3.5430     2.1750     1.8240 hc         1 AUN       0.057367
     37 H8          -2.1910     1.4610     2.7280 hc         1 AUN       0.057367
     38 H9          -2.3340     1.6640    -0.3570 h1         1 AUN       0.056700
     39 H10         -4.0940    -2.3080     1.1430 ha         1 AUN       0.121000
     40 H11         -6.5050    -2.7000     0.7600 ha         1 AUN       0.122500
     41 H12         -6.8830     1.3310    -0.7910 ha         1 AUN       0.122500
     42 H13         -4.5040     1.7080    -0.4050 ha         1 AUN       0.121000
     43 H14         -9.0920     1.1160    -0.6250 h4         1 AUN       0.156000
     44 H15        -10.9940    -2.7010    -0.5430 h5         1 AUN       0.055100
     45 H16         -0.3480     2.7410    -0.3460 hn         1 AUN       0.350500
     46 H17          2.2500     0.1660     0.4820 hn         1 AUN       0.385000
     47 H19          6.1280     2.5540    -1.1380 ha         1 AUN       0.118500
     48 H20          6.4660    -1.9810     0.8940 ha         1 AUN       0.130500
     49 H21          4.2520    -0.8970     0.6980 ha         1 AUN       0.118500
     50 O03         -2.7680    -0.1320     0.6530 os         1 AUN      -0.322100
@<TRIPOS>BOND
     1     1    13 1   
     2     1    16 2   
     3     1    18 1   
     4     2     3 1   
     5     2    16 1   
     6     2    17 1   
     7     3    30 1   
     8     3    31 1   
     9     3    32 1   
    10     4     5 2   
    11     4     6 1   
    12     4    23 1   
    13     5    24 1   
    14     5    33 1   
    15     6    25 ar  
    16     6    28 ar  
    17     7    25 ar  
    18     7    26 ar  
    19     7    34 1   
    20     8     9 1   
    21     8    35 1   
    22     8    36 1   
    23     8    37 1   
    24     9    19 1   
    25     9    38 1   
    26     9    50 1   
    27    10    11 ar  
    28    10    15 ar  
    29    10    50 1   
    30    11    12 ar  
    31    11    39 1   
    32    12    13 ar  
    33    12    40 1   
    34    13    14 ar  
    35    14    15 ar  
    36    14    41 1   
    37    15    42 1   
    38    16    43 1   
    39    17    18 2   
    40    17    44 1   
    41    19    20 2   
    42    19    21 1   
    43    21    22 1   
    44    21    45 1   
    45    22    23 1   
    46    22    24 2   
    47    23    46 1   
    48    25    47 1   
    49    26    27 ar  
    50    26    29 1   
    51    27    28 ar  
    52    27    48 1   
    53    28    49 1   
@<TRIPOS>SUBSTRUCTURE
     1 AUN         1 TEMP              0 ****  ****    0 ROOT
