@<TRIPOS>MOLECULE
AUP
   48    52     1     0     0
SMALL
No Charge or Current Charge


@<TRIPOS>ATOM
      1 C1           0.7610    -1.7470    -0.0630 cc         1 AUP      -0.021300
      2 C2          -0.6910    -1.7800    -0.1990 cc         1 AUP      -0.021300
      3 C3          -1.3820    -2.9510    -0.8910 c6         1 AUP      -0.032100
      4 C4          -0.4210    -3.8640    -1.6780 c6         1 AUP      -0.075900
      5 C5           0.8250    -4.1790    -0.8390 c6         1 AUP      -0.075900
      6 C6           1.6230    -2.8860    -0.5900 c6         1 AUP      -0.032100
      7 C7           1.2600    -0.6050     0.5540 cd         1 AUP      -0.168000
      8 P           -0.1200     0.4750     1.0470 p3         1 AUP      -0.163000
      9 C9          -1.3470    -0.6660     0.3230 cd         1 AUP      -0.168000
     10 N14         -3.6750    -1.4070     0.1750 nb         1 AUP      -0.677000
     11 C15         -5.0030    -1.1700     0.2530 ca         1 AUP       0.341400
     12 C16         -5.5370     0.0960     0.5340 ca         1 AUP      -0.168000
     13 C17         -4.6610     1.1670     0.7510 ca         1 AUP      -0.071000
     14 C18         -3.2810     0.9200     0.6700 ca         1 AUP      -0.152500
     15 C19         -2.8110    -0.3780     0.3580 ca         1 AUP       0.429500
     16 C24          0.1850     3.9880    -2.0090 ca         1 AUP      -0.099000
     17 C25          0.1440     4.2510    -0.6290 ca         1 AUP      -0.117000
     18 C26          0.0520     3.1870     0.2870 ca         1 AUP      -0.080000
     19 C27         -0.0000     1.8610    -0.1770 ca         1 AUP       0.069000
     20 C28          0.0440     1.5990    -1.5580 ca         1 AUP      -0.080000
     21 C29          0.1360     2.6620    -2.4740 ca         1 AUP      -0.117000
     22 N35          3.5940    -0.6940    -0.1720 nb         1 AUP      -0.677000
     23 C36          2.6760    -0.1610     0.6720 ca         1 AUP       0.429500
     24 C37          3.0230     0.8660     1.5790 ca         1 AUP      -0.152500
     25 C38          4.3480     1.3260     1.6430 ca         1 AUP      -0.071000
     26 C39          5.2880     0.7490     0.7780 ca         1 AUP      -0.168000
     27 C40          4.8690    -0.2520    -0.1110 ca         1 AUP       0.341400
     28 H31         -2.1470    -2.5920    -1.5920 hc         1 AUP       0.066200
     29 H32         -1.9110    -3.5570    -0.1430 hc         1 AUP       0.066200
     30 H41         -0.1250    -3.3760    -2.6170 hc         1 AUP       0.042700
     31 H42         -0.9360    -4.7940    -1.9570 hc         1 AUP       0.042700
     32 H51          0.5310    -4.6330     0.1170 hc         1 AUP       0.042700
     33 H52          1.4560    -4.9130    -1.3580 hc         1 AUP       0.042700
     34 H61          2.4350    -3.1140     0.1130 hc         1 AUP       0.066200
     35 H62          2.1050    -2.5820    -1.5290 hc         1 AUP       0.066200
     36 H16         -6.6130     0.2350     0.5880 ha         1 AUP       0.123000
     37 H17         -5.0380     2.1620     0.9800 ha         1 AUP       0.118000
     38 H18         -2.5910     1.7370     0.8400 ha         1 AUP       0.126500
     39 H24          0.2570     4.8100    -2.7180 ha         1 AUP       0.111000
     40 H25          0.1830     5.2760    -0.2680 ha         1 AUP       0.113000
     41 H26          0.0200     3.3910     1.3550 ha         1 AUP       0.118500
     42 H28          0.0080     0.5750    -1.9200 ha         1 AUP       0.118500
     43 H29          0.1690     2.4580    -3.5420 ha         1 AUP       0.113000
     44 H37          2.2780     1.2970     2.2380 ha         1 AUP       0.126500
     45 H38          4.6360     2.1090     2.3410 ha         1 AUP       0.118000
     46 H39          6.3260     1.0710     0.7870 ha         1 AUP       0.123000
     47 H40          5.5760    -0.7130    -0.8000 h4         1 AUP       0.016100
     48 H15         -5.6590    -2.0240     0.0890 h4         1 AUP       0.016100
@<TRIPOS>BOND
     1     1     2 1   
     2     1     6 1   
     3     1     7 2   
     4     2     3 1   
     5     2     9 2   
     6     3     4 1   
     7     3    28 1   
     8     3    29 1   
     9     4     5 1   
    10     4    30 1   
    11     4    31 1   
    12     5     6 1   
    13     5    32 1   
    14     5    33 1   
    15     6    34 1   
    16     6    35 1   
    17     7     8 1   
    18     7    23 1   
    19     8     9 1   
    20     8    19 1   
    21     9    15 1   
    22    10    11 ar  
    23    10    15 ar  
    24    11    12 ar  
    25    11    48 1   
    26    12    13 ar  
    27    12    36 1   
    28    13    14 ar  
    29    13    37 1   
    30    14    15 ar  
    31    14    38 1   
    32    16    17 ar  
    33    16    21 ar  
    34    16    39 1   
    35    17    18 ar  
    36    17    40 1   
    37    18    19 ar  
    38    18    41 1   
    39    19    20 ar  
    40    20    21 ar  
    41    20    42 1   
    42    21    43 1   
    43    22    23 ar  
    44    22    27 ar  
    45    23    24 ar  
    46    24    25 ar  
    47    24    44 1   
    48    25    26 ar  
    49    25    45 1   
    50    26    27 ar  
    51    26    46 1   
    52    27    47 1   
@<TRIPOS>SUBSTRUCTURE
     1 AUP         1 TEMP              0 ****  ****    0 ROOT
