@<TRIPOS>MOLECULE
AUP
   48    52     1     0     0
SMALL
abcg2


@<TRIPOS>ATOM
      1 C1           0.8130    -1.7510    -0.1020 cc         1 AUP      -0.021300
      2 C2          -0.6500    -1.8000    -0.1720 cc         1 AUP      -0.021300
      3 C3          -1.3610    -3.0620    -0.5810 c6         1 AUP      -0.032100
      4 C4          -0.4520    -4.0690    -1.2740 c6         1 AUP      -0.075900
      5 C5           0.8410    -4.2420    -0.4940 c6         1 AUP      -0.075900
      6 C6           1.6370    -2.9420    -0.5010 c6         1 AUP      -0.032100
      7 C7           1.3010    -0.5620     0.3520 cd         1 AUP      -0.168000
      8 P           -0.0460     0.4850     0.9250 p3         1 AUP      -0.163000
      9 C9          -1.2590    -0.6520     0.2350 cd         1 AUP      -0.168000
     10 N14         -3.4470    -0.7990    -0.7440 nb         1 AUP      -0.677000
     11 C15         -4.7300    -0.4740    -0.7770 ca         1 AUP       0.341400
     12 C16         -5.3420     0.3480     0.1580 ca         1 AUP      -0.168000
     13 C17         -4.5590     0.8490     1.1870 ca         1 AUP      -0.071000
     14 C18         -3.2170     0.5110     1.2340 ca         1 AUP      -0.152500
     15 C19         -2.6850    -0.3220     0.2440 ca         1 AUP       0.429500
     16 C24         -0.1030     4.0950    -1.9440 ca         1 AUP      -0.099000
     17 C25         -0.2130     4.2840    -0.5750 ca         1 AUP      -0.117000
     18 C26         -0.1900     3.1880     0.2800 ca         1 AUP      -0.080000
     19 C27         -0.0570     1.9010    -0.2320 ca         1 AUP       0.069000
     20 C28          0.0510     1.7170    -1.6110 ca         1 AUP      -0.080000
     21 C29          0.0290     2.8100    -2.4620 ca         1 AUP      -0.117000
     22 N35          3.5870    -0.7050    -0.3540 nb         1 AUP      -0.677000
     23 C36          2.6930    -0.1400     0.4630 ca         1 AUP       0.429500
     24 C37          3.0690     0.8600     1.3690 ca         1 AUP      -0.152500
     25 C38          4.3880     1.2720     1.4160 ca         1 AUP      -0.071000
     26 C39          5.3090     0.6760     0.5660 ca         1 AUP      -0.168000
     27 C40          4.8500    -0.3090    -0.2940 ca         1 AUP       0.341400
     28 H31         -2.2160    -2.8130    -1.2050 hc         1 AUP       0.066200
     29 H32         -1.7750    -3.5210     0.3240 hc         1 AUP       0.066200
     30 H41         -0.2230    -3.7320    -2.2900 hc         1 AUP       0.042700
     31 H42         -0.9800    -5.0190    -1.3720 hc         1 AUP       0.042700
     32 H51          0.6120    -4.5400     0.5340 hc         1 AUP       0.042700
     33 H52          1.4510    -5.0380    -0.9230 hc         1 AUP       0.042700
     34 H61          2.5160    -3.0180     0.1400 hc         1 AUP       0.066200
     35 H62          2.0280    -2.7720    -1.5090 hc         1 AUP       0.066200
     36 H16         -6.3940     0.5840     0.0790 ha         1 AUP       0.123000
     37 H17         -4.9860     1.4890     1.9470 ha         1 AUP       0.118000
     38 H18         -2.5940     0.8780     2.0390 ha         1 AUP       0.126500
     39 H24         -0.1200     4.9470    -2.6120 ha         1 AUP       0.111000
     40 H25         -0.3180     5.2820    -0.1700 ha         1 AUP       0.113000
     41 H26         -0.2770     3.3370     1.3500 ha         1 AUP       0.118500
     42 H28          0.1500     0.7170    -2.0150 ha         1 AUP       0.118500
     43 H29          0.1120     2.6620    -3.5310 ha         1 AUP       0.113000
     44 H37          2.3410     1.3000     2.0380 ha         1 AUP       0.126500
     45 H38          4.6930     2.0450     2.1090 ha         1 AUP       0.118000
     46 H39          6.3510     0.9640     0.5670 ha         1 AUP       0.123000
     47 H40          5.5370    -0.8000    -0.9750 h4         1 AUP       0.016100
     48 H15         -5.3070    -0.8860    -1.5980 h4         1 AUP       0.016100
@<TRIPOS>BOND
     1     1     2 1   
     2     1     6 1   
     3     1     7 2   
     4     2     3 1   
     5     2     9 2   
     6     3     4 1   
     7     3    28 1   
     8     3    29 1   
     9     4     5 1   
    10     4    30 1   
    11     4    31 1   
    12     5     6 1   
    13     5    32 1   
    14     5    33 1   
    15     6    34 1   
    16     6    35 1   
    17     7     8 1   
    18     7    23 1   
    19     8     9 1   
    20     8    19 1   
    21     9    15 1   
    22    10    11 ar  
    23    10    15 ar  
    24    11    12 ar  
    25    11    48 1   
    26    12    13 ar  
    27    12    36 1   
    28    13    14 ar  
    29    13    37 1   
    30    14    15 ar  
    31    14    38 1   
    32    16    17 ar  
    33    16    21 ar  
    34    16    39 1   
    35    17    18 ar  
    36    17    40 1   
    37    18    19 ar  
    38    18    41 1   
    39    19    20 ar  
    40    20    21 ar  
    41    20    42 1   
    42    21    43 1   
    43    22    23 ar  
    44    22    27 ar  
    45    23    24 ar  
    46    24    25 ar  
    47    24    44 1   
    48    25    26 ar  
    49    25    45 1   
    50    26    27 ar  
    51    26    46 1   
    52    27    47 1   
@<TRIPOS>SUBSTRUCTURE
     1 AUP         1 TEMP              0 ****  ****    0 ROOT
