@<TRIPOS>MOLECULE
AUQ
   37    38     1     0     0
SMALL
No Charge or Current Charge


@<TRIPOS>ATOM
      1 C10         -1.1230     0.0110     0.5710 c          1 AUQ       0.609100
      2 N12         -0.1560     0.8380     0.0080 ns         1 AUQ      -0.150000
      3 C13          1.2510     0.7010    -0.1380 ca         1 AUQ      -0.001000
      4 C15          3.3130     1.5870    -1.1150 ca         1 AUQ      -0.051000
      5 C20         -5.3730     0.9060    -0.3930 ca         1 AUQ      -0.129500
      6 C21         -6.7390     1.0200    -0.7080 ca         1 AUQ      -0.135000
      7 C01         -9.9520    -0.8640    -0.4920 c3         1 AUQ       0.148900
      8 C03         -7.6310    -0.0260    -0.4150 ca         1 AUQ       0.108100
      9 C04         -7.1440    -1.2010     0.1990 ca         1 AUQ      -0.135000
     10 C05         -5.7780    -1.3140     0.5140 ca         1 AUQ      -0.129500
     11 C06         -4.8870    -0.2660     0.2280 ca         1 AUQ       0.102100
     12 O07         -3.5560    -0.4500     0.5580 os         1 AUQ      -0.320100
     13 C08         -2.5590     0.6030     0.5050 c3         1 AUQ       0.097300
     14 C09         -2.8200     1.5570     1.7000 c3         1 AUQ      -0.125100
     15 O11         -0.8850    -1.1090     1.0170 o          1 AUQ      -0.537100
     16 C14          1.9200     1.6560    -0.9290 ca         1 AUQ      -0.155000
     17 C16          4.0500     0.5620    -0.5050 ca         1 AUQ       0.166000
     18 C18          3.3980    -0.3920     0.2920 ca         1 AUQ      -0.051000
     19 C19          2.0050    -0.3240     0.4780 ca         1 AUQ      -0.155000
     20 I17          6.1950     0.4540    -0.7880 i          1 AUQ      -0.312000
     21 H1          -0.5200     1.7080    -0.3580 hn         1 AUQ       0.151000
     22 H2           3.8200     2.3260    -1.7300 ha         1 AUQ       0.128500
     23 H3          -4.7130     1.7320    -0.6410 ha         1 AUQ       0.123000
     24 H4          -7.1110     1.9240    -1.1850 ha         1 AUQ       0.123500
     25 H5         -10.0200    -1.0800     0.5820 h1         1 AUQ       0.040033
     26 H6         -10.9370    -0.5240    -0.8340 h1         1 AUQ       0.040033
     27 H7          -9.7100    -1.7930    -1.0240 h1         1 AUQ       0.040033
     28 H8          -7.8050    -2.0300     0.4360 ha         1 AUQ       0.123500
     29 H9          -5.4050    -2.2200     0.9850 ha         1 AUQ       0.123000
     30 H10         -2.6290     1.1570    -0.4390 h1         1 AUQ       0.048700
     31 H11         -3.8170     2.0080     1.6440 hc         1 AUQ       0.055367
     32 H12         -2.7420     1.0160     2.6510 hc         1 AUQ       0.055367
     33 H13         -2.0860     2.3720     1.7090 hc         1 AUQ       0.055367
     34 H14          1.3590     2.4570    -1.4080 ha         1 AUQ       0.132000
     35 H15          3.9740    -1.1810     0.7670 ha         1 AUQ       0.128500
     36 H16          1.5360    -1.0710     1.1110 ha         1 AUQ       0.132000
     37 O02         -8.9590     0.1460    -0.7490 os         1 AUQ      -0.342100
@<TRIPOS>BOND
     1     1     2 1   
     2     1    13 1   
     3     1    15 2   
     4     2     3 1   
     5     2    21 1   
     6     3    16 ar  
     7     3    19 ar  
     8     4    16 ar  
     9     4    17 ar  
    10     4    22 1   
    11     5     6 ar  
    12     5    11 ar  
    13     5    23 1   
    14     6     8 ar  
    15     6    24 1   
    16     7    25 1   
    17     7    26 1   
    18     7    27 1   
    19     7    37 1   
    20     8     9 ar  
    21     8    37 1   
    22     9    10 ar  
    23     9    28 1   
    24    10    11 ar  
    25    10    29 1   
    26    11    12 1   
    27    12    13 1   
    28    13    14 1   
    29    13    30 1   
    30    14    31 1   
    31    14    32 1   
    32    14    33 1   
    33    16    34 1   
    34    17    18 ar  
    35    17    20 1   
    36    18    19 ar  
    37    18    35 1   
    38    19    36 1   
@<TRIPOS>SUBSTRUCTURE
     1 AUQ         1 TEMP              0 ****  ****    0 ROOT
