@<TRIPOS>MOLECULE
AUQ
   37    38     1     0     0
SMALL
bcc


@<TRIPOS>ATOM
      1 C10         -1.2150     0.0680     0.4590 c          1 AUQ       0.676100
      2 N12         -0.2700     0.8320    -0.1440 ns         1 AUQ      -0.476100
      3 C13          1.1130     0.6520    -0.1870 ca         1 AUQ       0.091600
      4 C15          3.2400     1.6000    -0.8540 ca         1 AUQ      -0.069000
      5 C20         -5.3600     0.9610    -0.3160 ca         1 AUQ      -0.147500
      6 C21         -6.7130     1.0180    -0.6160 ca         1 AUQ      -0.153000
      7 C01         -9.7320    -0.9920    -0.4470 c3         1 AUQ       0.125700
      8 C03         -7.5540    -0.0580    -0.3500 ca         1 AUQ       0.108100
      9 C04         -7.0120    -1.2030     0.2300 ca         1 AUQ      -0.153000
     10 C05         -5.6590    -1.2590     0.5300 ca         1 AUQ      -0.147500
     11 C06         -4.8180    -0.1850     0.2600 ca         1 AUQ       0.102100
     12 O07         -3.5100    -0.3610     0.5730 os         1 AUQ      -0.296900
     13 C08         -2.6040     0.7020     0.4130 c3         1 AUQ       0.074100
     14 C09         -2.7210     1.7370     1.5290 c3         1 AUQ      -0.125100
     15 O11         -1.0020    -0.9840     1.0230 o          1 AUQ      -0.537100
     16 C14          1.8620     1.6820    -0.7610 ca         1 AUQ      -0.173000
     17 C16          3.8890     0.4740    -0.3670 ca         1 AUQ       0.028900
     18 C18          3.1610    -0.5580     0.2030 ca         1 AUQ      -0.069000
     19 C19          1.7780    -0.4750     0.2950 ca         1 AUQ      -0.173000
     20 I17          5.9820     0.3350    -0.4970 i          1 AUQ      -0.174900
     21 H1          -0.5980     1.6710    -0.5990 hn         1 AUQ       0.317500
     22 H2           3.7870     2.4170    -1.3030 ha         1 AUQ       0.146500
     23 H3          -4.7540     1.8280    -0.5440 ha         1 AUQ       0.141000
     24 H4          -7.1200     1.9160    -1.0630 ha         1 AUQ       0.141500
     25 H5          -9.8010    -1.2420     0.6160 h1         1 AUQ       0.040033
     26 H6         -10.7130    -0.6800    -0.7950 h1         1 AUQ       0.040033
     27 H7          -9.4320    -1.8870    -0.9990 h1         1 AUQ       0.040033
     28 H8          -7.6240    -2.0650     0.4600 ha         1 AUQ       0.141500
     29 H9          -5.2510    -2.1560     0.9780 ha         1 AUQ       0.141000
     30 H10         -2.7400     1.1840    -0.5630 h1         1 AUQ       0.048700
     31 H11         -3.7160     2.1780     1.5590 hc         1 AUQ       0.055367
     32 H12         -2.5190     1.2820     2.4990 hc         1 AUQ       0.055367
     33 H13         -2.0100     2.5480     1.3760 hc         1 AUQ       0.055367
     34 H14          1.3640     2.5660    -1.1420 ha         1 AUQ       0.150000
     35 H15          3.6520    -1.4420     0.5850 ha         1 AUQ       0.146500
     36 H16          1.2410    -1.2960     0.7390 ha         1 AUQ       0.150000
     37 O02         -8.8560     0.0910    -0.6800 os         1 AUQ      -0.318900
@<TRIPOS>BOND
     1     1     2 1   
     2     1    13 1   
     3     1    15 2   
     4     2     3 1   
     5     2    21 1   
     6     3    16 ar  
     7     3    19 ar  
     8     4    16 ar  
     9     4    17 ar  
    10     4    22 1   
    11     5     6 ar  
    12     5    11 ar  
    13     5    23 1   
    14     6     8 ar  
    15     6    24 1   
    16     7    25 1   
    17     7    26 1   
    18     7    27 1   
    19     7    37 1   
    20     8     9 ar  
    21     8    37 1   
    22     9    10 ar  
    23     9    28 1   
    24    10    11 ar  
    25    10    29 1   
    26    11    12 1   
    27    12    13 1   
    28    13    14 1   
    29    13    30 1   
    30    14    31 1   
    31    14    32 1   
    32    14    33 1   
    33    16    34 1   
    34    17    18 ar  
    35    17    20 1   
    36    18    19 ar  
    37    18    35 1   
    38    19    36 1   
@<TRIPOS>SUBSTRUCTURE
     1 AUQ         1 TEMP              0 ****  ****    0 ROOT
