@<TRIPOS>MOLECULE
AUS
   36    39     1     0     0
SMALL
No Charge or Current Charge


@<TRIPOS>ATOM
      1 C10          7.1490     8.7230    30.5610 c6         1 AUS      -0.074400
      2 C13          3.1010    13.9150    29.8370 cx         1 AUS      -0.239700
      3 C15          3.7620    14.1100    28.4990 cx         1 AUS      -0.097000
      4 C17          5.9130    13.4450    27.8200 cy         1 AUS      -0.091400
      5 O01          1.4640    12.2520    30.3820 o          1 AUS      -0.538100
      6 C02          2.6440    12.5360    30.2400 c          1 AUS       0.642100
      7 N03          3.6860    11.6660    30.4350 ns         1 AUS      -0.484400
      8 C04          3.6540    10.3400    30.7940 cc         1 AUS       0.407900
      9 N05          2.5580     9.6500    31.0740 nd         1 AUS      -0.366300
     10 O06          3.0500     8.3260    31.3950 os         1 AUS      -0.067700
     11 C07          4.4120     8.3520    31.2770 cd         1 AUS       0.202300
     12 C08          4.8270     9.5780    30.9010 cc         1 AUS      -0.263300
     13 C09          6.2580     9.9950    30.6690 c6         1 AUS       0.009900
     14 C11          6.7930     7.6550    31.6390 c6         1 AUS      -0.074400
     15 C12          5.3180     7.1710    31.5140 c6         1 AUS      -0.117700
     16 C14          2.3710    14.6320    28.6910 cx         1 AUS      -0.072400
     17 C16          4.4440    13.1080    27.5130 cy         1 AUS      -0.058400
     18 C18          5.1440    14.7390    28.1380 cy         1 AUS      -0.058400
     19 H1           7.0290     8.2800    29.5630 hc         1 AUS       0.045700
     20 H2           8.2070     9.0060    30.6460 hc         1 AUS       0.045700
     21 H3           3.4500    14.5380    30.6560 hc         1 AUS       0.085700
     22 H4           6.3480    12.9310    28.6830 hc         1 AUS       0.050700
     23 H5           6.6110    13.4690    26.9760 hc         1 AUS       0.050700
     24 H6           4.5940    12.0730    30.2700 hn         1 AUS       0.325500
     25 H7           6.3600    10.5980    29.7560 hc         1 AUS       0.044700
     26 H8           6.6090    10.6200    31.5020 hc         1 AUS       0.044700
     27 H9           6.9530     8.0850    32.6380 hc         1 AUS       0.048700
     28 H10          7.4740     6.7960    31.5600 hc         1 AUS       0.048700
     29 H11          5.0190     6.6240    32.4180 hc         1 AUS       0.070200
     30 H12          5.2290     6.4670    30.6750 hc         1 AUS       0.070200
     31 H13          2.2400    15.7090    28.7660 hc         1 AUS       0.086700
     32 H14          1.5610    14.1080    28.1870 hc         1 AUS       0.086700
     33 H15          4.1990    13.2550    26.4510 hc         1 AUS       0.059200
     34 H16          4.2220    12.0460    27.6700 hc         1 AUS       0.059200
     35 H17          5.6250    15.3180    28.9340 hc         1 AUS       0.059200
     36 H18          5.1360    15.4380    27.2890 hc         1 AUS       0.059200
@<TRIPOS>BOND
     1     1    13 1   
     2     1    14 1   
     3     1    19 1   
     4     1    20 1   
     5     2     3 1   
     6     2     6 1   
     7     2    16 1   
     8     2    21 1   
     9     3    16 1   
    10     3    17 1   
    11     3    18 1   
    12     4    17 1   
    13     4    18 1   
    14     4    22 1   
    15     4    23 1   
    16     5     6 2   
    17     6     7 1   
    18     7     8 1   
    19     7    24 1   
    20     8     9 2   
    21     8    12 1   
    22     9    10 1   
    23    10    11 1   
    24    11    12 2   
    25    11    15 1   
    26    12    13 1   
    27    13    25 1   
    28    13    26 1   
    29    14    15 1   
    30    14    27 1   
    31    14    28 1   
    32    15    29 1   
    33    15    30 1   
    34    16    31 1   
    35    16    32 1   
    36    17    33 1   
    37    17    34 1   
    38    18    35 1   
    39    18    36 1   
@<TRIPOS>SUBSTRUCTURE
     1 AUS         1 TEMP              0 ****  ****    0 ROOT
