@<TRIPOS>MOLECULE
AUS
   36    39     1     0     0
SMALL
abcg2


@<TRIPOS>ATOM
      1 C10          7.2980     8.3670    31.9650 c6         1 AUS      -0.074400
      2 C13          3.8850    13.6810    29.4770 cx         1 AUS      -0.239700
      3 C15          3.7310    14.3990    28.1550 cx         1 AUS      -0.097000
      4 C17          4.7080    14.3850    26.2520 cy         1 AUS      -0.091400
      5 O01          2.3620    11.8820    29.1530 o          1 AUS      -0.538100
      6 C02          3.4260    12.2760    29.5840 c          1 AUS       0.642100
      7 N03          4.3270    11.4520    30.2070 ns         1 AUS      -0.484400
      8 C04          4.2060    10.1000    30.4430 cc         1 AUS       0.407900
      9 N05          3.1820     9.3710    30.0830 nd         1 AUS      -0.366300
     10 O06          3.4770     8.0970    30.5070 os         1 AUS      -0.067700
     11 C07          4.6650     8.0880    31.1070 cd         1 AUS       0.202300
     12 C08          5.1990     9.3280    31.1100 cc         1 AUS      -0.263300
     13 C09          6.5210     9.6640    31.7130 c6         1 AUS       0.009900
     14 C11          6.4220     7.2810    32.5910 c6         1 AUS      -0.074400
     15 C12          5.2740     6.8590    31.6680 c6         1 AUS      -0.117700
     16 C14          2.8450    14.7560    29.2770 cx         1 AUS      -0.072400
     17 C16          3.4070    13.7640    26.8070 cy         1 AUS      -0.058400
     18 C18          4.8390    15.2390    27.5310 cy         1 AUS      -0.058400
     19 H1           7.7080     8.0020    31.0190 hc         1 AUS       0.045700
     20 H2           8.1490     8.5760    32.6150 hc         1 AUS       0.045700
     21 H3           4.7650    13.9500    30.0530 hc         1 AUS       0.085700
     22 H4           5.5100    13.6550    26.1510 hc         1 AUS       0.050700
     23 H5           4.6220    14.9310    25.3130 hc         1 AUS       0.050700
     24 H6           5.1910    11.8670    30.5230 hn         1 AUS       0.325500
     25 H7           7.0970    10.3240    31.0590 hc         1 AUS       0.044700
     26 H8           6.3810    10.2070    32.6520 hc         1 AUS       0.044700
     27 H9           6.0090     7.6460    33.5350 hc         1 AUS       0.048700
     28 H10          7.0280     6.4070    32.8320 hc         1 AUS       0.048700
     29 H11          4.5340     6.2670    32.2110 hc         1 AUS       0.070200
     30 H12          5.6470     6.2280    30.8560 hc         1 AUS       0.070200
     31 H13          3.0120    15.6970    29.7870 hc         1 AUS       0.086700
     32 H14          1.8110    14.4350    29.2380 hc         1 AUS       0.086700
     33 H15          2.5070    14.1880    26.3590 hc         1 AUS       0.059200
     34 H16          3.3300    12.6780    26.7670 hc         1 AUS       0.059200
     35 H17          5.8050    15.2300    28.0360 hc         1 AUS       0.059200
     36 H18          4.5360    16.2770    27.3820 hc         1 AUS       0.059200
@<TRIPOS>BOND
     1     1    13 1   
     2     1    14 1   
     3     1    19 1   
     4     1    20 1   
     5     2     3 1   
     6     2     6 1   
     7     2    16 1   
     8     2    21 1   
     9     3    16 1   
    10     3    17 1   
    11     3    18 1   
    12     4    17 1   
    13     4    18 1   
    14     4    22 1   
    15     4    23 1   
    16     5     6 2   
    17     6     7 1   
    18     7     8 1   
    19     7    24 1   
    20     8     9 2   
    21     8    12 1   
    22     9    10 1   
    23    10    11 1   
    24    11    12 2   
    25    11    15 1   
    26    12    13 1   
    27    13    25 1   
    28    13    26 1   
    29    14    15 1   
    30    14    27 1   
    31    14    28 1   
    32    15    29 1   
    33    15    30 1   
    34    16    31 1   
    35    16    32 1   
    36    17    33 1   
    37    17    34 1   
    38    18    35 1   
    39    18    36 1   
@<TRIPOS>SUBSTRUCTURE
     1 AUS         1 TEMP              0 ****  ****    0 ROOT
