@<TRIPOS>MOLECULE
AUT
   33    34     1     0     0
SMALL
No Charge or Current Charge


@<TRIPOS>ATOM
      1 C12          4.4500     0.1260     0.3500 c3         1 AUT       0.198100
      2 C13          2.2500    -1.1520     0.4130 ca         1 AUT      -0.097500
      3 C9           0.8330     1.1020    -0.4780 ca         1 AUT       0.130000
      4 C8           0.1230    -0.0950    -0.2080 cp         1 AUT      -0.017000
      5 C3          -3.6510    -0.1310     0.4540 ca         1 AUT      -0.114000
      6 C7          -1.3560    -0.1670    -0.3990 cp         1 AUT      -0.039000
      7 C11          2.9420     0.0460     0.1530 ca         1 AUT      -0.069300
      8 C14          0.8580    -1.2250     0.2330 ca         1 AUT       0.130000
      9 Cl1          0.0550    -2.7610     0.5600 cl         1 AUT      -0.190500
     10 C10          2.2240     1.1690    -0.2960 ca         1 AUT      -0.097500
     11 C6          -1.8760    -0.3370    -1.7040 ca         1 AUT      -0.082000
     12 C4          -4.1480    -0.3020    -0.8480 ca         1 AUT      -0.099000
     13 C5          -3.2600    -0.4050    -1.9290 ca         1 AUT      -0.116000
     14 C2          -2.2630    -0.0640     0.6940 ca         1 AUT      -0.042300
     15 C1          -1.7860     0.1350     2.1320 c3         1 AUT      -0.034100
     16 N            5.1700    -0.0380    -0.9270 n8         1 AUT      -1.002200
     17 C           -1.5770     1.6200     2.4830 c3         1 AUT      -0.087100
     18 H1           4.7140     1.1000     0.7860 h1         1 AUT       0.039700
     19 H2           4.7780    -0.6580     1.0480 h1         1 AUT       0.039700
     20 H3           2.7900    -2.0320     0.7530 ha         1 AUT       0.141000
     21 H4          -4.3510    -0.0470     1.2820 ha         1 AUT       0.111000
     22 H5           2.7480     2.0980    -0.5080 ha         1 AUT       0.141000
     23 H6          -1.1940    -0.4160    -2.5470 ha         1 AUT       0.116000
     24 H7          -5.2210    -0.3530    -1.0190 ha         1 AUT       0.112000
     25 H8          -3.6420    -0.5370    -2.9390 ha         1 AUT       0.114000
     26 H9          -2.5150    -0.2900     2.8330 hc         1 AUT       0.047700
     27 H10         -0.8520    -0.4080     2.3150 hc         1 AUT       0.047700
     28 H11          6.1800    -0.0590    -0.7380 hn         1 AUT       0.401500
     29 H12          4.9730    -0.9750    -1.2980 hn         1 AUT       0.401500
     30 H14         -0.7990     2.0640     1.8530 hc         1 AUT       0.036033
     31 H15         -2.5050     2.1860     2.3370 hc         1 AUT       0.036033
     32 H16         -1.2710     1.7260     3.5310 hc         1 AUT       0.036033
     33 Cl          -0.0040     2.5470    -1.0480 cl         1 AUT      -0.190500
@<TRIPOS>BOND
     1     1     7 1   
     2     1    16 1   
     3     1    18 1   
     4     1    19 1   
     5     2     7 ar  
     6     2     8 ar  
     7     2    20 1   
     8     3     4 ar  
     9     3    10 ar  
    10     3    33 1   
    11     4     6 1   
    12     4     8 ar  
    13     5    12 ar  
    14     5    14 ar  
    15     5    21 1   
    16     6    11 ar  
    17     6    14 ar  
    18     7    10 ar  
    19     8     9 1   
    20    10    22 1   
    21    11    13 ar  
    22    11    23 1   
    23    12    13 ar  
    24    12    24 1   
    25    13    25 1   
    26    14    15 1   
    27    15    17 1   
    28    15    26 1   
    29    15    27 1   
    30    16    28 1   
    31    16    29 1   
    32    17    30 1   
    33    17    31 1   
    34    17    32 1   
@<TRIPOS>SUBSTRUCTURE
     1 AUT         1 TEMP              0 ****  ****    0 ROOT
