@<TRIPOS>MOLECULE
AUT
   33    34     1     0     0
SMALL
bcc


@<TRIPOS>ATOM
      1 C12          4.4070    -0.2100     0.2850 c3         1 AUT       0.198100
      2 C13          2.1670    -1.3230     0.4580 ca         1 AUT      -0.115500
      3 C9           0.8700     0.8870    -0.5330 ca         1 AUT       0.038400
      4 C8           0.0920    -0.2110    -0.1720 cp         1 AUT      -0.017000
      5 C3          -3.6200    -0.0500     0.4770 ca         1 AUT      -0.132000
      6 C7          -1.3790    -0.2270    -0.3510 cp         1 AUT      -0.039000
      7 C11          2.9100    -0.2050     0.0990 ca         1 AUT      -0.069300
      8 C14          0.7900    -1.3120     0.3210 ca         1 AUT       0.038400
      9 CL1         -0.0920    -2.7350     0.7660 cl         1 AUT      -0.098900
     10 C10          2.2490     0.9060    -0.4060 ca         1 AUT      -0.115500
     11 C6          -1.8870    -0.4640    -1.6260 ca         1 AUT      -0.100000
     12 C4          -4.1250    -0.2810    -0.7940 ca         1 AUT      -0.117000
     13 C5          -3.2530    -0.4920    -1.8530 ca         1 AUT      -0.134000
     14 C2          -2.2490    -0.0200     0.7250 ca         1 AUT      -0.042300
     15 C1          -1.7570     0.2730     2.1160 c3         1 AUT      -0.034100
     16 N            5.0760     0.7290    -0.5920 n8         1 AUT      -0.891800
     17 C           -1.4940     1.7590     2.3450 c3         1 AUT      -0.087100
     18 H1           4.6190     0.0830     1.3170 h1         1 AUT       0.039700
     19 H2           4.7620    -1.2450     0.1890 h1         1 AUT       0.039700
     20 H3           2.6630    -2.2080     0.8370 ha         1 AUT       0.159000
     21 H4          -4.3060     0.1050     1.3020 ha         1 AUT       0.129000
     22 H5           2.8130     1.7780    -0.7050 ha         1 AUT       0.159000
     23 H6          -1.2000    -0.6290    -2.4470 ha         1 AUT       0.134000
     24 H7          -5.1950    -0.3020    -0.9540 ha         1 AUT       0.130000
     25 H8          -3.6340    -0.6800    -2.8490 ha         1 AUT       0.132000
     26 H9          -2.5070    -0.0700     2.8320 hc         1 AUT       0.047700
     27 H10         -0.8490    -0.2920     2.3350 hc         1 AUT       0.047700
     28 H11          6.0430     0.8200    -0.3100 hn         1 AUT       0.346300
     29 H12          5.0900     0.3670    -1.5370 hn         1 AUT       0.346300
     30 H14         -0.7140     2.1360     1.6840 hc         1 AUT       0.036033
     31 H15         -2.3920     2.3500     2.1680 hc         1 AUT       0.036033
     32 H16         -1.1730     1.9370     3.3720 hc         1 AUT       0.036033
     33 CL           0.0910     2.2960    -1.1760 cl         1 AUT      -0.098900
@<TRIPOS>BOND
     1     1     7 1   
     2     1    16 1   
     3     1    18 1   
     4     1    19 1   
     5     2     7 ar  
     6     2     8 ar  
     7     2    20 1   
     8     3     4 ar  
     9     3    10 ar  
    10     3    33 1   
    11     4     6 1   
    12     4     8 ar  
    13     5    12 ar  
    14     5    14 ar  
    15     5    21 1   
    16     6    11 ar  
    17     6    14 ar  
    18     7    10 ar  
    19     8     9 1   
    20    10    22 1   
    21    11    13 ar  
    22    11    23 1   
    23    12    13 ar  
    24    12    24 1   
    25    13    25 1   
    26    14    15 1   
    27    15    17 1   
    28    15    26 1   
    29    15    27 1   
    30    16    28 1   
    31    16    29 1   
    32    17    30 1   
    33    17    31 1   
    34    17    32 1   
@<TRIPOS>SUBSTRUCTURE
     1 AUT         1 TEMP              0 ****  ****    0 ROOT
