@<TRIPOS>MOLECULE
AUU
   23    24     1     0     0
SMALL
abcg2


@<TRIPOS>ATOM
      1 C10          1.6260     0.3390    -0.1040 c          1 AUU       0.698000
      2 C04         -0.5350    -0.3780     1.0400 c5         1 AUU      -0.038700
      3 C05          0.4080    -0.6200    -0.1660 c5         1 AUU       0.034200
      4 C06         -1.8980    -0.0740    -0.7160 c5         1 AUU      -0.078700
      5 C07         -0.5470    -0.4010    -1.3660 c5         1 AUU      -0.058400
      6 C08         -1.8540    -0.9680     0.5270 c5         1 AUU      -0.086400
      7 C09         -0.9070     1.1070     1.1430 c5         1 AUU      -0.070400
      8 C11         -1.8070     1.3310    -0.0980 c5         1 AUU      -0.071400
      9 N03          0.8330    -2.0230    -0.1330 n8         1 AUU      -1.003200
     10 O01          1.6630     1.3240    -0.8670 o          1 AUU      -0.732000
     11 O02          2.4910     0.0420     0.7500 o          1 AUU      -0.732000
     12 H1          -0.1430    -0.7960     1.9700 hc         1 AUU       0.059700
     13 H2          -2.7520    -0.2060    -1.3820 hc         1 AUU       0.030700
     14 H4          -0.2030     0.3940    -2.0250 hc         1 AUU       0.040700
     15 H5          -0.6210    -1.3170    -1.9590 hc         1 AUU       0.040700
     16 H6          -1.7860    -2.0310     0.2940 hc         1 AUU       0.031200
     17 H7          -2.6900    -0.8080     1.2140 hc         1 AUU       0.031200
     18 H9          -1.4630     1.2820     2.0670 hc         1 AUU       0.039700
     19 H10         -0.0450     1.7730     1.1640 hc         1 AUU       0.039700
     20 H11         -1.3760     2.0510    -0.7960 hc         1 AUU       0.027700
     21 H12         -2.7940     1.7020     0.1880 hc         1 AUU       0.027700
     22 H13          1.2630    -2.2540    -1.0220 hn         1 AUU       0.384500
     23 H14          1.5810    -2.0960     0.5480 hn         1 AUU       0.384500
@<TRIPOS>BOND
     1     1     3 1   
     2     1    10 1   
     3     1    11 1   
     4     2     3 1   
     5     2     6 1   
     6     2     7 1   
     7     2    12 1   
     8     3     5 1   
     9     3     9 1   
    10     4     5 1   
    11     4     6 1   
    12     4     8 1   
    13     4    13 1   
    14     5    14 1   
    15     5    15 1   
    16     6    16 1   
    17     6    17 1   
    18     7     8 1   
    19     7    18 1   
    20     7    19 1   
    21     8    20 1   
    22     8    21 1   
    23     9    22 1   
    24     9    23 1   
@<TRIPOS>SUBSTRUCTURE
     1 AUU         1 TEMP              0 ****  ****    0 ROOT
