@<TRIPOS>MOLECULE
AUU
   23    24     1     0     0
SMALL
No Charge or Current Charge


@<TRIPOS>ATOM
      1 C10          1.6500     0.3910    -0.1230 c          1 AUU       0.698000
      2 C04         -0.5420    -0.4150     1.0580 c5         1 AUU      -0.038700
      3 C05          0.4270    -0.6610    -0.1750 c5         1 AUU       0.034200
      4 C06         -1.9310    -0.0740    -0.7020 c5         1 AUU      -0.078700
      5 C07         -0.5590    -0.3860    -1.3880 c5         1 AUU      -0.058400
      6 C08         -1.8890    -0.9820     0.5460 c5         1 AUU      -0.086400
      7 C09         -0.9070     1.1090     1.1690 c5         1 AUU      -0.070400
      8 C11         -1.8090     1.3520    -0.0790 c5         1 AUU      -0.071400
      9 N03          0.8800    -2.0980    -0.2030 n8         1 AUU      -1.003200
     10 O01          1.9050     1.1090    -1.0820 o          1 AUU      -0.732000
     11 O02          2.3860     0.3780     0.8570 o          1 AUU      -0.732000
     12 H1          -0.1910    -0.8500     2.0010 hc         1 AUU       0.059700
     13 H2          -2.8020    -0.2100    -1.3530 hc         1 AUU       0.030700
     14 H4          -0.2510     0.4260    -2.0540 hc         1 AUU       0.040700
     15 H5          -0.6560    -1.2680    -2.0330 hc         1 AUU       0.040700
     16 H6          -1.8610    -2.0510     0.3070 hc         1 AUU       0.031200
     17 H7          -2.7260    -0.8110     1.2350 hc         1 AUU       0.031200
     18 H9          -1.4720     1.3000     2.0890 hc         1 AUU       0.039700
     19 H10         -0.0440     1.7810     1.2040 hc         1 AUU       0.039700
     20 H11         -1.3780     2.0820    -0.7740 hc         1 AUU       0.027700
     21 H12         -2.7910     1.7400     0.2190 hc         1 AUU       0.027700
     22 H13          1.4740    -2.2430    -1.0270 hn         1 AUU       0.384500
     23 H14          1.5290    -2.2450     0.5790 hn         1 AUU       0.384500
@<TRIPOS>BOND
     1     1     3 1   
     2     1    10 1   
     3     1    11 1   
     4     2     3 1   
     5     2     6 1   
     6     2     7 1   
     7     2    12 1   
     8     3     5 1   
     9     3     9 1   
    10     4     5 1   
    11     4     6 1   
    12     4     8 1   
    13     4    13 1   
    14     5    14 1   
    15     5    15 1   
    16     6    16 1   
    17     6    17 1   
    18     7     8 1   
    19     7    18 1   
    20     7    19 1   
    21     8    20 1   
    22     8    21 1   
    23     9    22 1   
    24     9    23 1   
@<TRIPOS>SUBSTRUCTURE
     1 AUU         1 TEMP              0 ****  ****    0 ROOT
