@<TRIPOS>MOLECULE
AUV
   25    26     1     0     0
SMALL
No Charge or Current Charge


@<TRIPOS>ATOM
      1 C            3.4950    -0.9570     0.1370 c          1 AUV       0.713600
      2 O            3.2510    -2.1160     0.4410 o          1 AUV      -0.722000
      3 C1           2.3330    -0.0130    -0.1290 ca         1 AUV      -0.141600
      4 O1          -2.2730     1.7530     1.2280 oh         1 AUV      -0.516100
      5 C2           0.9950    -0.4610    -0.0180 ca         1 AUV      -0.070000
      6 O2           4.6350    -0.5260     0.0370 o          1 AUV      -0.722000
      7 C3          -0.1040     0.4020    -0.2550 cp         1 AUV      -0.082000
      8 C4          -1.5100    -0.1090    -0.1460 cp         1 AUV      -0.026000
      9 C10          0.1680     1.7400    -0.6250 ca         1 AUV      -0.106000
     10 C11          1.4880     2.2010    -0.7410 ca         1 AUV      -0.154000
     11 C12          2.5640     1.3330    -0.4940 ca         1 AUV      -0.078000
     12 C5          -1.8540    -1.3360    -0.7670 ca         1 AUV      -0.069000
     13 C6          -3.1600    -1.8490    -0.6930 ca         1 AUV      -0.154000
     14 C7          -4.1510    -1.1490     0.0090 ca         1 AUV      -0.090000
     15 C8          -3.8340     0.0650     0.6400 ca         1 AUV      -0.219000
     16 C9          -2.5300     0.5850     0.5690 ca         1 AUV       0.137100
     17 H5          -3.1010     2.0480     1.6620 ho         1 AUV       0.446000
     18 H            0.7970    -1.4920     0.2670 ha         1 AUV       0.128000
     19 H6          -0.6520     2.4220    -0.8340 ha         1 AUV       0.088000
     20 H7           1.6780     3.2330    -1.0270 ha         1 AUV       0.085000
     21 H8           3.5800     1.7120    -0.5900 ha         1 AUV       0.125000
     22 H1          -1.1000    -1.8880    -1.3230 ha         1 AUV       0.127000
     23 H2          -3.4020    -2.7910    -1.1810 ha         1 AUV       0.105000
     24 H3          -5.1620    -1.5470     0.0670 ha         1 AUV       0.096000
     25 H4          -4.6090     0.5960     1.1880 ha         1 AUV       0.097000
@<TRIPOS>BOND
     1     1     2 1   
     2     1     3 1   
     3     1     6 1   
     4     3     5 ar  
     5     3    11 ar  
     6     4    16 1   
     7     4    17 1   
     8     5     7 ar  
     9     5    18 1   
    10     7     8 1   
    11     7     9 ar  
    12     8    12 ar  
    13     8    16 ar  
    14     9    10 ar  
    15     9    19 1   
    16    10    11 ar  
    17    10    20 1   
    18    11    21 1   
    19    12    13 ar  
    20    12    22 1   
    21    13    14 ar  
    22    13    23 1   
    23    14    15 ar  
    24    14    24 1   
    25    15    16 ar  
    26    15    25 1   
@<TRIPOS>SUBSTRUCTURE
     1 AUV         1 TEMP              0 ****  ****    0 ROOT
