@<TRIPOS>MOLECULE
AUV
   25    26     1     0     0
SMALL
abcg2


@<TRIPOS>ATOM
      1 C            3.4230    -0.9260     0.2500 c          1 AUV       0.713600
      2 O            3.1200    -2.0790     0.6110 o          1 AUV      -0.722000
      3 C1           2.2680     0.0080    -0.0940 ca         1 AUV      -0.141600
      4 O1          -2.1230     1.6510     1.2730 oh         1 AUV      -0.516100
      5 C2           0.9500    -0.4250     0.0170 ca         1 AUV      -0.070000
      6 O2           4.5710    -0.4550     0.1430 o          1 AUV      -0.722000
      7 C3          -0.1250     0.4120    -0.2770 cp         1 AUV      -0.082000
      8 C4          -1.5080    -0.1040    -0.1770 cp         1 AUV      -0.026000
      9 C10          0.1390     1.7160    -0.6990 ca         1 AUV      -0.106000
     10 C11          1.4480     2.1570    -0.8220 ca         1 AUV      -0.154000
     11 C12          2.5060     1.3120    -0.5180 ca         1 AUV      -0.078000
     12 C5          -1.8670    -1.2740    -0.8450 ca         1 AUV      -0.069000
     13 C6          -3.1490    -1.7990    -0.7650 ca         1 AUV      -0.154000
     14 C7          -4.1010    -1.1460     0.0030 ca         1 AUV      -0.090000
     15 C8          -3.7690     0.0150     0.6850 ca         1 AUV      -0.219000
     16 C9          -2.4810     0.5380     0.6010 ca         1 AUV       0.137100
     17 H5          -2.8680     1.9810     1.7860 ho         1 AUV       0.446000
     18 H            0.7570    -1.4370     0.3510 ha         1 AUV       0.128000
     19 H6          -0.6770     2.3820    -0.9500 ha         1 AUV       0.088000
     20 H7           1.6430     3.1670    -1.1600 ha         1 AUV       0.085000
     21 H8           3.5250     1.6630    -0.6140 ha         1 AUV       0.125000
     22 H1          -1.1220    -1.7740    -1.4520 ha         1 AUV       0.127000
     23 H2          -3.3990    -2.7060    -1.3000 ha         1 AUV       0.105000
     24 H3          -5.1080    -1.5360     0.0770 ha         1 AUV       0.096000
     25 H4          -4.5120     0.5140     1.2960 ha         1 AUV       0.097000
@<TRIPOS>BOND
     1     1     2 1   
     2     1     3 1   
     3     1     6 1   
     4     3     5 ar  
     5     3    11 ar  
     6     4    16 1   
     7     4    17 1   
     8     5     7 ar  
     9     5    18 1   
    10     7     8 1   
    11     7     9 ar  
    12     8    12 ar  
    13     8    16 ar  
    14     9    10 ar  
    15     9    19 1   
    16    10    11 ar  
    17    10    20 1   
    18    11    21 1   
    19    12    13 ar  
    20    12    22 1   
    21    13    14 ar  
    22    13    23 1   
    23    14    15 ar  
    24    14    24 1   
    25    15    16 ar  
    26    15    25 1   
@<TRIPOS>SUBSTRUCTURE
     1 AUV         1 TEMP              0 ****  ****    0 ROOT
