@<TRIPOS>MOLECULE
AUW
   52    55     1     0     0
SMALL
No Charge or Current Charge


@<TRIPOS>ATOM
      1 C2          -5.4160    -0.2350    -1.1410 ca         1 AUW      -0.042300
      2 C1          -4.4720    -0.2440    -2.3440 c3         1 AUW      -0.035100
      3 C23         -2.7030    -0.9360     0.9720 ca         1 AUW       0.129500
      4 C8          -3.4970     0.1390     0.4970 cp         1 AUW      -0.014000
      5 C7          -4.9450    -0.0580     0.1910 cp         1 AUW      -0.041000
      6 C6          -5.8800    -0.0760     1.2530 ca         1 AUW      -0.081000
      7 C5          -7.2490    -0.2620     1.0090 ca         1 AUW      -0.115000
      8 C4          -7.7060    -0.4370    -0.3050 ca         1 AUW      -0.099000
      9 C3          -6.7940    -0.4250    -1.3730 ca         1 AUW      -0.113000
     10 C           -3.8880    -1.6410    -2.6250 c3         1 AUW      -0.087100
     11 C22         -1.3400    -0.7500     1.2580 ca         1 AUW      -0.095500
     12 C11         -0.7390     0.5100     1.0860 ca         1 AUW      -0.073300
     13 C10         -1.5190     1.5870     0.6260 ca         1 AUW      -0.095500
     14 C9          -2.8820     1.4070     0.3380 ca         1 AUW       0.129500
     15 Cl          -3.8070     2.8020    -0.2170 cl         1 AUW      -0.188000
     16 C12          0.7390     0.7010     1.3980 c3         1 AUW       0.208100
     17 N            1.5650     0.1700     0.3000 n7         1 AUW      -0.873400
     18 C13          3.0210     0.3130     0.4850 c3         1 AUW       0.162800
     19 C14          3.7670    -0.3180    -0.7010 c3         1 AUW      -0.100700
     20 C15          5.2560    -0.2380    -0.5410 cc         1 AUW       0.414800
     21 N2           6.0200    -1.1890     0.1300 na         1 AUW      -0.315600
     22 C21          7.3130    -0.7730     0.0710 ca         1 AUW      -0.079200
     23 C16          7.3160     0.4020    -0.6230 ca         1 AUW       0.068400
     24 N1           6.0290     0.7590    -1.0180 nd         1 AUW      -0.574100
     25 C20          8.4760    -1.3600     0.5840 ca         1 AUW      -0.117000
     26 C19          9.6960    -0.6860     0.3620 ca         1 AUW      -0.092000
     27 C18          9.7150     0.5350    -0.3560 ca         1 AUW      -0.136000
     28 C17          8.5160     1.0910    -0.8570 ca         1 AUW      -0.048000
     29 H1          -5.0020     0.1000    -3.2410 hc         1 AUW       0.048200
     30 H2          -3.6470     0.4640    -2.2020 hc         1 AUW       0.048200
     31 H3          -5.5320     0.0570     2.2750 ha         1 AUW       0.116000
     32 H4          -7.9540    -0.2730     1.8380 ha         1 AUW       0.114000
     33 H5          -8.7670    -0.5840    -0.4970 ha         1 AUW       0.113000
     34 H6          -7.1610    -0.5670    -2.3870 ha         1 AUW       0.112000
     35 H7          -4.6910    -2.3670    -2.7990 hc         1 AUW       0.036367
     36 H8          -3.2470    -1.6150    -3.5140 hc         1 AUW       0.036367
     37 H9          -3.2840    -1.9870    -1.7780 hc         1 AUW       0.036367
     38 H10         -0.7470    -1.5900     1.6120 ha         1 AUW       0.139500
     39 H11         -1.0700     2.5680     0.4920 ha         1 AUW       0.139500
     40 H12          0.9420     1.7710     1.5510 h1         1 AUW       0.042200
     41 H13          0.9740     0.1870     2.3400 h1         1 AUW       0.042200
     42 H14          1.2980     0.6640    -0.5600 hn         1 AUW       0.419000
     43 H16          3.2990     1.3730     0.5630 h1         1 AUW       0.037700
     44 H17          3.3380    -0.1860     1.4120 h1         1 AUW       0.037700
     45 H18          3.4670    -1.3680    -0.8010 hc         1 AUW       0.073200
     46 H19          3.4710     0.1850    -1.6280 hc         1 AUW       0.073200
     47 H20          5.6670    -2.0280     0.5730 hn         1 AUW       0.356000
     48 H22          8.4430    -2.2980     1.1340 ha         1 AUW       0.116000
     49 H23         10.6240    -1.1060     0.7440 ha         1 AUW       0.112000
     50 H24         10.6590     1.0490    -0.5230 ha         1 AUW       0.114000
     51 H25          8.5210     2.0270    -1.4090 ha         1 AUW       0.128000
     52 Cl1         -3.3940    -2.5410     1.2130 cl         1 AUW      -0.188000
@<TRIPOS>BOND
     1     1     2 1   
     2     1     5 ar  
     3     1     9 ar  
     4     2    10 1   
     5     2    29 1   
     6     2    30 1   
     7     3     4 ar  
     8     3    11 ar  
     9     3    52 1   
    10     4     5 1   
    11     4    14 ar  
    12     5     6 ar  
    13     6     7 ar  
    14     6    31 1   
    15     7     8 ar  
    16     7    32 1   
    17     8     9 ar  
    18     8    33 1   
    19     9    34 1   
    20    10    35 1   
    21    10    36 1   
    22    10    37 1   
    23    11    12 ar  
    24    11    38 1   
    25    12    13 ar  
    26    12    16 1   
    27    13    14 ar  
    28    13    39 1   
    29    14    15 1   
    30    16    17 1   
    31    16    40 1   
    32    16    41 1   
    33    17    18 1   
    34    17    42 1   
    35    18    19 1   
    36    18    43 1   
    37    18    44 1   
    38    19    20 1   
    39    19    45 1   
    40    19    46 1   
    41    20    21 1   
    42    20    24 2   
    43    21    22 1   
    44    21    47 1   
    45    22    23 ar  
    46    22    25 ar  
    47    23    24 1   
    48    23    28 ar  
    49    25    26 ar  
    50    25    48 1   
    51    26    27 ar  
    52    26    49 1   
    53    27    28 ar  
    54    27    50 1   
    55    28    51 1   
@<TRIPOS>SUBSTRUCTURE
     1 AUW         1 TEMP              0 ****  ****    0 ROOT
