@<TRIPOS>MOLECULE
AUW
   52    55     1     0     0
SMALL
abcg2


@<TRIPOS>ATOM
      1 C2          -5.5490    -0.1760    -0.9060 ca         1 AUW      -0.042300
      2 C1          -4.9000     0.2470    -2.1960 c3         1 AUW      -0.035100
      3 C23         -2.3920    -0.9040     0.3350 ca         1 AUW       0.129500
      4 C8          -3.3950     0.0650     0.3610 cp         1 AUW      -0.014000
      5 C7          -4.8340    -0.2830     0.2900 cp         1 AUW      -0.041000
      6 C6          -5.4700    -0.7130     1.4520 ca         1 AUW      -0.081000
      7 C5          -6.8160    -1.0430     1.4430 ca         1 AUW      -0.115000
      8 C4          -7.5350    -0.9420     0.2590 ca         1 AUW      -0.099000
      9 C3          -6.9010    -0.5130    -0.8970 ca         1 AUW      -0.113000
     10 C           -4.3260    -0.9390    -2.9700 c3         1 AUW      -0.087100
     11 C22         -1.0470    -0.5930     0.4180 ca         1 AUW      -0.095500
     12 C11         -0.6520     0.7340     0.5440 ca         1 AUW      -0.073300
     13 C10         -1.6230     1.7250     0.5750 ca         1 AUW      -0.095500
     14 C9          -2.9630     1.3830     0.4900 ca         1 AUW       0.129500
     15 CL          -4.1400     2.6510     0.5380 cl         1 AUW      -0.188000
     16 C12          0.8050     1.0870     0.6890 c3         1 AUW       0.208100
     17 N            1.6400     0.2660    -0.1620 n7         1 AUW      -0.873400
     18 C13          3.0550     0.4200     0.1050 c3         1 AUW       0.162800
     19 C14          3.8590    -0.5490    -0.7620 c3         1 AUW      -0.100700
     20 C15          5.3200    -0.4620    -0.4990 cc         1 AUW       0.414800
     21 N2           5.8740    -0.9650     0.6370 na         1 AUW      -0.315600
     22 C21          7.2180    -0.7090     0.5920 ca         1 AUW      -0.079200
     23 C16          7.4060    -0.0300    -0.6240 ca         1 AUW       0.068400
     24 N1           6.2020     0.1070    -1.2760 nd         1 AUW      -0.574100
     25 C20          8.2640    -0.9940     1.4610 ca         1 AUW      -0.117000
     26 C19          9.5250    -0.5720     1.0740 ca         1 AUW      -0.092000
     27 C18          9.7320     0.1080    -0.1350 ca         1 AUW      -0.136000
     28 C17          8.6840     0.3870    -0.9950 ca         1 AUW      -0.048000
     29 H1          -5.6410     0.7570    -2.8150 hc         1 AUW       0.048200
     30 H2          -4.1080     0.9740    -2.0100 hc         1 AUW       0.048200
     31 H3          -4.9040    -0.7840     2.3720 ha         1 AUW       0.116000
     32 H4          -7.3000    -1.3720     2.3530 ha         1 AUW       0.114000
     33 H5          -8.5880    -1.1920     0.2360 ha         1 AUW       0.113000
     34 H6          -7.4700    -0.4310    -1.8160 ha         1 AUW       0.112000
     35 H7          -5.1010    -1.6750    -3.1860 hc         1 AUW       0.036367
     36 H8          -3.9010    -0.6110    -3.9190 hc         1 AUW       0.036367
     37 H9          -3.5400    -1.4400    -2.4060 hc         1 AUW       0.036367
     38 H10         -0.3010    -1.3750     0.3840 ha         1 AUW       0.139500
     39 H11         -1.3370     2.7650     0.6690 ha         1 AUW       0.139500
     40 H12          0.9360     2.1660     0.5230 h1         1 AUW       0.042200
     41 H13          1.1010     0.9040     1.7270 h1         1 AUW       0.042200
     42 H14          1.4540     0.4980    -1.1310 hn         1 AUW       0.419000
     43 H16          3.4190     1.4450    -0.0620 h1         1 AUW       0.037700
     44 H17          3.2270     0.1970     1.1610 h1         1 AUW       0.037700
     45 H18          3.5080    -1.5670    -0.5760 hc         1 AUW       0.073200
     46 H19          3.6920    -0.3310    -1.8180 hc         1 AUW       0.073200
     47 H20          5.3850    -1.4640     1.3630 hn         1 AUW       0.356000
     48 H22          8.1060    -1.5210     2.3930 ha         1 AUW       0.116000
     49 H23         10.3710    -0.7720     1.7190 ha         1 AUW       0.112000
     50 H24         10.7350     0.4180    -0.3990 ha         1 AUW       0.114000
     51 H25          8.8480     0.9120    -1.9270 ha         1 AUW       0.128000
     52 CL1         -2.8360    -2.5730     0.1930 cl         1 AUW      -0.188000
@<TRIPOS>BOND
     1     1     2 1   
     2     1     5 ar  
     3     1     9 ar  
     4     2    10 1   
     5     2    29 1   
     6     2    30 1   
     7     3     4 ar  
     8     3    11 ar  
     9     3    52 1   
    10     4     5 1   
    11     4    14 ar  
    12     5     6 ar  
    13     6     7 ar  
    14     6    31 1   
    15     7     8 ar  
    16     7    32 1   
    17     8     9 ar  
    18     8    33 1   
    19     9    34 1   
    20    10    35 1   
    21    10    36 1   
    22    10    37 1   
    23    11    12 ar  
    24    11    38 1   
    25    12    13 ar  
    26    12    16 1   
    27    13    14 ar  
    28    13    39 1   
    29    14    15 1   
    30    16    17 1   
    31    16    40 1   
    32    16    41 1   
    33    17    18 1   
    34    17    42 1   
    35    18    19 1   
    36    18    43 1   
    37    18    44 1   
    38    19    20 1   
    39    19    45 1   
    40    19    46 1   
    41    20    21 1   
    42    20    24 2   
    43    21    22 1   
    44    21    47 1   
    45    22    23 ar  
    46    22    25 ar  
    47    23    24 1   
    48    23    28 ar  
    49    25    26 ar  
    50    25    48 1   
    51    26    27 ar  
    52    26    49 1   
    53    27    28 ar  
    54    27    50 1   
    55    28    51 1   
@<TRIPOS>SUBSTRUCTURE
     1 AUW         1 TEMP              0 ****  ****    0 ROOT
