@<TRIPOS>MOLECULE
AUY
   28    29     1     0     0
SMALL
abcg2


@<TRIPOS>ATOM
      1 S           -2.4180    -0.1420    -1.2240 ss         1 AUY       0.255000
      2 C1          -2.9460     0.2510     1.2370 cc         1 AUY      -0.143000
      3 N1           3.4100     2.3040     0.2690 nb         1 AUY      -0.670000
      4 O1           3.4580    -2.5770    -0.7130 o          1 AUY      -0.717000
      5 C01         -5.3370    -0.6800     1.4870 c3         1 AUY      -0.019800
      6 N01          0.4280     0.2180     0.0290 nu         1 AUY      -0.977200
      7 O01          1.3170    -2.2670    -0.2020 o          1 AUY      -0.717000
      8 C02         -4.1140    -0.3640     0.6880 cc         1 AUY      -0.107300
      9 C03         -3.9580    -0.6300    -0.6380 cd         1 AUY      -0.266000
     10 C04         -1.9500     0.4390     0.3310 cd         1 AUY      -0.198300
     11 C05         -0.6150     1.0720     0.5390 c3         1 AUY       0.298100
     12 C06          1.7450     0.5700     0.0490 ca         1 AUY       0.302000
     13 C07          2.1520     1.8970     0.2860 ca         1 AUY       0.205900
     14 C08          4.3610     1.4100     0.0220 ca         1 AUY       0.231900
     15 C09          4.0730     0.0740    -0.2020 ca         1 AUY      -0.095000
     16 C10          2.7630    -0.3840    -0.1860 ca         1 AUY      -0.186600
     17 C11          2.4920    -1.8690    -0.3900 c          1 AUY       0.723600
     18 H1          -2.8560     0.5380     2.2770 ha         1 AUY       0.125000
     19 H01         -5.7900     0.2260     1.8910 hc         1 AUY       0.032367
     20 H01A        -6.0880    -1.1880     0.8830 hc         1 AUY       0.032367
     21 H01B        -5.0980    -1.3240     2.3350 hc         1 AUY       0.032367
     22 HN01         0.3030    -0.7920     0.0690 hn         1 AUY       0.550000
     23 H03         -4.6680    -1.1010    -1.3030 h4         1 AUY       0.137000
     24 H05         -0.4990     1.2910     1.6090 h1         1 AUY       0.031700
     25 H05A        -0.5870     2.0370     0.0230 h1         1 AUY       0.031700
     26 H07          1.4130     2.6610     0.5010 h4         1 AUY      -0.011900
     27 H08          5.3840     1.7670     0.0120 h4         1 AUY      -0.009900
     28 H09          4.8770    -0.6260    -0.3830 ha         1 AUY       0.131000
@<TRIPOS>BOND
     1     1     9 1   
     2     1    10 1   
     3     2     8 1   
     4     2    10 2   
     5     2    18 1   
     6     3    13 ar  
     7     3    14 ar  
     8     4    17 1   
     9     5     8 1   
    10     5    19 1   
    11     5    20 1   
    12     5    21 1   
    13     6    11 1   
    14     6    12 1   
    15     6    22 1   
    16     7    17 1   
    17     8     9 2   
    18     9    23 1   
    19    10    11 1   
    20    11    24 1   
    21    11    25 1   
    22    12    13 ar  
    23    12    16 ar  
    24    13    26 1   
    25    14    15 ar  
    26    14    27 1   
    27    15    16 ar  
    28    15    28 1   
    29    16    17 1   
@<TRIPOS>SUBSTRUCTURE
     1 AUY         1 TEMP              0 ****  ****    0 ROOT
