@<TRIPOS>MOLECULE
AUY
   28    29     1     0     0
SMALL
No Charge or Current Charge


@<TRIPOS>ATOM
      1 S           -3.2190     1.2630    -1.2230 ss         1 AUY       0.255000
      2 C1          -2.5990    -0.0400     0.9410 cc         1 AUY      -0.143000
      3 N1           3.6070     2.2250    -0.1060 nb         1 AUY      -0.670000
      4 O1           2.7900    -2.7390     0.2110 o          1 AUY      -0.717000
      5 C01         -4.6270    -1.4990     1.4510 c3         1 AUY      -0.019800
      6 N01          0.2750     0.5510    -0.1320 nu         1 AUY      -0.977200
      7 O01          0.8030    -2.0100     0.5600 o          1 AUY      -0.717000
      8 C02         -3.9060    -0.4830     0.6090 cc         1 AUY      -0.107300
      9 C03         -4.3840     0.1200    -0.5280 cd         1 AUY      -0.266000
     10 C04         -2.0770     0.8870     0.0750 cd         1 AUY      -0.198300
     11 C05         -0.7390     1.5650     0.1370 c3         1 AUY       0.298100
     12 C06          1.6640     0.7130    -0.0430 ca         1 AUY       0.302000
     13 C07          2.2710     1.9970    -0.1790 ca         1 AUY       0.205900
     14 C08          4.4000     1.1540     0.1070 ca         1 AUY       0.231900
     15 C09          3.9030    -0.1540     0.2510 ca         1 AUY      -0.095000
     16 C10          2.5080    -0.4050     0.1780 ca         1 AUY      -0.186600
     17 C11          1.9890    -1.8220     0.3240 c          1 AUY       0.723600
     18 H1          -2.0690    -0.4120     1.8130 ha         1 AUY       0.125000
     19 H01         -4.7630    -1.1310     2.4750 hc         1 AUY       0.032367
     20 H01A        -5.6180    -1.7230     1.0390 hc         1 AUY       0.032367
     21 H01B        -4.0620    -2.4380     1.4990 hc         1 AUY       0.032367
     22 HN01        -0.0080    -0.4180     0.0830 hn         1 AUY       0.550000
     23 H03         -5.3440    -0.0280    -1.0080 h4         1 AUY       0.137000
     24 H05         -0.5950     1.9960     1.1370 h1         1 AUY       0.031700
     25 H05A        -0.6880     2.3730    -0.6050 h1         1 AUY       0.031700
     26 H07          1.6620     2.8830    -0.3550 h4         1 AUY      -0.011900
     27 H08          5.4700     1.3490     0.1640 h4         1 AUY      -0.009900
     28 H09          4.6080    -0.9630     0.4200 ha         1 AUY       0.131000
@<TRIPOS>BOND
     1     1     9 1   
     2     1    10 1   
     3     2     8 1   
     4     2    10 2   
     5     2    18 1   
     6     3    13 ar  
     7     3    14 ar  
     8     4    17 1   
     9     5     8 1   
    10     5    19 1   
    11     5    20 1   
    12     5    21 1   
    13     6    11 1   
    14     6    12 1   
    15     6    22 1   
    16     7    17 1   
    17     8     9 2   
    18     9    23 1   
    19    10    11 1   
    20    11    24 1   
    21    11    25 1   
    22    12    13 ar  
    23    12    16 ar  
    24    13    26 1   
    25    14    15 ar  
    26    14    27 1   
    27    15    16 ar  
    28    15    28 1   
    29    16    17 1   
@<TRIPOS>SUBSTRUCTURE
     1 AUY         1 TEMP              0 ****  ****    0 ROOT
