@<TRIPOS>MOLECULE
AV0
  157   160     1     0     0
SMALL
No Charge or Current Charge


@<TRIPOS>ATOM
      1 C1          -3.4030    -1.4400     0.1740 c6         1 AV0       0.365300
      2 O1          -2.2560    -0.9670     0.8970 os         1 AV0      -0.450500
      3 C2          -4.4620    -2.0080     1.1720 c6         1 AV0       0.111300
      4 O2          -3.9440    -3.0800     1.9960 oh         1 AV0      -0.725000
      5 C3          -5.6890    -2.4940     0.3590 c6         1 AV0       0.165300
      6 O3          -6.6530    -3.0770     1.2540 oh         1 AV0      -0.728000
      7 C4          -6.2600    -1.3090    -0.4900 c6         1 AV0       0.154300
      8 O4          -7.3990    -1.7110    -1.2900 os         1 AV0      -0.496000
      9 C5          -5.1210    -0.7370    -1.3880 c6         1 AV0       0.161800
     10 O5          -3.9860    -0.3500    -0.5660 os         1 AV0      -0.463500
     11 C6          -5.5900     0.5090    -2.2100 c3         1 AV0       0.164600
     12 O6          -4.5460     1.0790    -3.0280 oh         1 AV0      -0.713000
     13 CAA         -5.1830    11.7630     2.5850 c3         1 AV0      -0.088100
     14 CAB          5.1670   -11.8220     2.4560 c3         1 AV0      -0.088100
     15 OAN          6.6540     3.0440     1.3280 oh         1 AV0      -0.728000
     16 OAP          3.9410     3.0340     2.0570 oh         1 AV0      -0.725000
     17 OAQ        -11.0210    -2.4320    -4.0940 oh         1 AV0      -0.719000
     18 OAR         11.0450     2.4790    -4.0100 oh         1 AV0      -0.719000
     19 OAS        -10.5300    -4.6020    -2.2970 oh         1 AV0      -0.667000
     20 OAT         10.5440     4.6230    -2.1840 oh         1 AV0      -0.667000
     21 OAV          8.5790     4.1920    -0.1360 oh         1 AV0      -0.727000
     22 CAW         -4.6230    10.4990     3.2640 c3         1 AV0      -0.074900
     23 CAX          4.6050   -10.5660     3.1490 c3         1 AV0      -0.074900
     24 CAY         -4.1520     9.4280     2.2560 c3         1 AV0      -0.075400
     25 CAZ          4.1410    -9.4810     2.1530 c3         1 AV0      -0.075400
     26 CBA         -3.5910     8.1610     2.9380 c3         1 AV0      -0.074400
     27 CBB          3.5780    -8.2230     2.8480 c3         1 AV0      -0.074400
     28 CBC         -3.1200     7.0900     1.9290 c3         1 AV0      -0.074400
     29 CBD          3.1140    -7.1380     1.8510 c3         1 AV0      -0.074400
     30 CBE         -2.5590     5.8230     2.6110 c3         1 AV0      -0.073900
     31 CBF          2.5510    -5.8790     2.5470 c3         1 AV0      -0.073900
     32 CBG         -2.0880     4.7520     1.6020 c3         1 AV0      -0.075900
     33 CBH          2.0870    -4.7940     1.5500 c3         1 AV0      -0.075900
     34 CBK         -1.0590     2.4140     1.2750 c3         1 AV0      -0.077900
     35 CBL          1.0620    -2.4510     1.2480 c3         1 AV0      -0.077900
     36 CBM        -10.6840     0.4050    -3.0140 c3         1 AV0       0.169600
     37 CBN         10.7060    -0.3730    -2.9720 c3         1 AV0       0.169600
     38 CBP          5.6100    -0.4940    -2.1920 c3         1 AV0       0.164600
     39 CBS         -1.1500    -0.5070     0.0990 c3         1 AV0       0.169600
     40 OBV          2.2610     0.9350     0.9210 os         1 AV0      -0.450500
     41 OBX          3.9980     0.3400    -0.5430 os         1 AV0      -0.463500
     42 OBY         -9.4940    -0.6640    -1.1580 os         1 AV0      -0.454500
     43 OBZ          9.5070     0.6680    -1.1060 os         1 AV0      -0.454500
     44 OCB          7.4120     1.7140    -1.2330 os         1 AV0      -0.496000
     45 CCC         -9.8630    -0.8460    -2.5540 c6         1 AV0       0.168800
     46 CCD          9.8830     0.8700    -2.4980 c6         1 AV0       0.168800
     47 CCF          5.1360     0.7400    -1.3550 c6         1 AV0       0.161800
     48 CCH          5.6940     2.4720     0.4200 c6         1 AV0       0.165300
     49 CCJ          3.4100     1.4190     0.2100 c6         1 AV0       0.365300
     50 CCL          4.4640     1.9730     1.2210 c6         1 AV0       0.111300
     51 CCM          0.0020    -0.0170     1.0330 c3         1 AV0      -0.039000
     52 CCN        -10.6630    -2.1770    -2.7240 c6         1 AV0       0.151300
     53 CCO         10.6810     2.2040    -2.6460 c6         1 AV0       0.151300
     54 CCQ          6.2700     1.3000    -0.4430 c6         1 AV0       0.154300
     55 CCR         -8.6730    -1.7150    -0.6080 c6         1 AV0       0.364300
     56 CCS          8.6830     1.7100    -0.5450 c6         1 AV0       0.364300
     57 CCT         -9.8080    -3.3620    -2.1900 c6         1 AV0       0.106800
     58 CCU          9.8240     3.3800    -2.0980 c6         1 AV0       0.106800
     59 CCV         -9.3920    -3.1060    -0.7130 c6         1 AV0       0.116300
     60 CCW          9.4010     3.1030    -0.6270 c6         1 AV0       0.116300
     61 H1          -3.0890    -2.2330    -0.5210 h2         1 AV0       0.034200
     62 H2          -4.7830    -1.1730     1.8140 h1         1 AV0       0.068200
     63 H3          -3.0550    -2.7790     2.3080 ho         1 AV0       0.528000
     64 H4          -5.3380    -3.2660    -0.3430 h1         1 AV0       0.055700
     65 H5          -6.0930    -3.4250     1.9960 ho         1 AV0       0.530000
     66 H6          -6.5750    -0.5030     0.1890 h1         1 AV0       0.065700
     67 H7          -4.7970    -1.5110    -2.0990 h1         1 AV0       0.059700
     68 H8          -6.4360     0.2030    -2.8420 h1         1 AV0       0.044950
     69 H9          -5.9700     1.2590    -1.5030 h1         1 AV0       0.044950
     70 H10         -4.9200     1.8870    -3.4510 ho         1 AV0       0.507000
     71 H11         -5.5040    12.4920     3.3380 hc         1 AV0       0.031367
     72 H12         -4.4190    12.2350     1.9540 hc         1 AV0       0.031367
     73 H13         -6.0470    11.5160     1.9560 hc         1 AV0       0.031367
     74 H14          4.4070   -12.2850     1.8140 hc         1 AV0       0.031367
     75 H15          6.0350   -11.5680     1.8370 hc         1 AV0       0.031367
     76 H16          5.4820   -12.5620     3.2020 hc         1 AV0       0.031367
     77 H17        -10.6080     2.3740    -3.0710 ho         1 AV0       0.505000
     78 H18         10.6330    -2.3410    -3.0590 ho         1 AV0       0.505000
     79 H19          4.9470    -1.8550    -3.4550 ho         1 AV0       0.507000
     80 H21          3.0520     2.7280     2.3610 ho         1 AV0       0.528000
     81 H22        -11.1930    -3.4050    -4.1240 ho         1 AV0       0.525000
     82 H23         11.2170     3.4530    -4.0260 ho         1 AV0       0.525000
     83 H24        -10.0700    -5.2110    -1.6710 ho         1 AV0       0.463000
     84 H25         10.0820     5.2220    -1.5520 ho         1 AV0       0.463000
     85 H27          7.8410     3.7690     0.3970 ho         1 AV0       0.537500
     86 H28         -3.7840    10.7830     3.9110 hc         1 AV0       0.036700
     87 H29         -5.3970    10.0710     3.9140 hc         1 AV0       0.036700
     88 H30          3.7610   -10.8590     3.7870 hc         1 AV0       0.036700
     89 H31          5.3750   -10.1490     3.8090 hc         1 AV0       0.036700
     90 H32         -4.9930     9.1470     1.6100 hc         1 AV0       0.036700
     91 H33         -3.3790     9.8600     1.6070 hc         1 AV0       0.036700
     92 H34          4.9870    -9.1930     1.5160 hc         1 AV0       0.036700
     93 H35          3.3720    -9.9030     1.4930 hc         1 AV0       0.036700
     94 H36         -2.7500     8.4420     3.5840 hc         1 AV0       0.036700
     95 H37         -4.3630     7.7290     3.5860 hc         1 AV0       0.036700
     96 H38          2.7320    -8.5110     3.4850 hc         1 AV0       0.036700
     97 H39          4.3470    -7.8010     3.5070 hc         1 AV0       0.036700
     98 H40         -3.9610     6.8090     1.2830 hc         1 AV0       0.037450
     99 H41         -2.3470     7.5220     1.2800 hc         1 AV0       0.037450
    100 H42          3.9600    -6.8490     1.2140 hc         1 AV0       0.037450
    101 H43          2.3460    -7.5600     1.1920 hc         1 AV0       0.037450
    102 H44         -1.7180     6.1040     3.2570 hc         1 AV0       0.036950
    103 H45         -3.3310     5.3910     3.2600 hc         1 AV0       0.036950
    104 H46          1.7060    -6.1680     3.1840 hc         1 AV0       0.036950
    105 H47          3.3200    -5.4570     3.2060 hc         1 AV0       0.036950
    106 H48         -2.9300     4.4710     0.9560 hc         1 AV0       0.039200
    107 H49         -1.3160     5.1840     0.9530 hc         1 AV0       0.039200
    108 H50          2.9330    -4.5060     0.9130 hc         1 AV0       0.039200
    109 H51          1.3180    -5.2160     0.8900 hc         1 AV0       0.039200
    110 H52         -0.6860     3.7660     2.9290 hc         1 AV0       0.035700
    111 H53         -2.3010     3.0550     2.9330 hc         1 AV0       0.035700
    112 H54          0.6790    -3.8240     2.8820 hc         1 AV0       0.035700
    113 H55          2.2940    -3.1150     2.9050 hc         1 AV0       0.035700
    114 H56         -1.9080     2.1470     0.6340 hc         1 AV0       0.041200
    115 H57         -0.2900     2.8550     0.6310 hc         1 AV0       0.041200
    116 H58          1.9140    -2.1760     0.6160 hc         1 AV0       0.041200
    117 H59          0.2960    -2.8840     0.5940 hc         1 AV0       0.041200
    118 H60        -11.6300     0.4140    -2.4560 h1         1 AV0       0.037200
    119 H61        -10.9350     0.2790    -4.0760 h1         1 AV0       0.037200
    120 H62         11.6510    -0.3890    -2.4100 h1         1 AV0       0.037200
    121 H63         10.9620    -0.2320    -4.0310 h1         1 AV0       0.037200
    122 H64          5.9870    -1.2540    -1.4940 h1         1 AV0       0.044950
    123 H65          6.4580    -0.1790    -2.8160 h1         1 AV0       0.044950
    124 H70         -0.7880    -1.3110    -0.5530 h1         1 AV0       0.038950
    125 H71         -1.4650     0.3140    -0.5580 h1         1 AV0       0.038950
    126 H74         -8.9490    -0.8920    -3.1640 h1         1 AV0       0.076700
    127 H75          8.9720     0.9240    -3.1110 h1         1 AV0       0.076700
    128 H76          4.8140     1.5240    -2.0550 h1         1 AV0       0.059700
    129 H77          5.3460     3.2540    -0.2730 h1         1 AV0       0.055700
    130 H78          3.0990     2.2220    -0.4750 h2         1 AV0       0.034200
    131 H79          4.7840     1.1300     1.8520 h1         1 AV0       0.068200
    132 H80        -11.5750    -2.1060    -2.1130 h1         1 AV0       0.048700
    133 H81         11.5910     2.1260    -2.0320 h1         1 AV0       0.048700
    134 H82          6.5830     0.4840     0.2260 h1         1 AV0       0.065700
    135 H83         -8.5200    -1.5020     0.4620 h2         1 AV0       0.083700
    136 H84          8.5260     1.4820     0.5210 h2         1 AV0       0.083700
    137 H85         -8.8880    -3.4180    -2.7920 h1         1 AV0       0.057700
    138 H86          8.9060     3.4440    -2.7030 h1         1 AV0       0.057700
    139 H87        -10.3080    -3.0350    -0.1060 h1         1 AV0       0.089200
    140 H88         10.3150     3.0250    -0.0180 h1         1 AV0       0.089200
    141 OAU         -8.5730    -4.2030    -0.2340 oh         1 AV0      -0.727000
    142 OAI         -9.9840     1.6530    -2.8210 oh         1 AV0      -0.719000
    143 CBQ         -0.5020     1.1420     1.9690 c3         1 AV0      -0.063900
    144 CBR          0.5010    -1.1880     1.9560 c3         1 AV0      -0.063900
    145 CBT          1.1590     0.4850     0.1110 c3         1 AV0       0.169600
    146 H20          6.0900     3.3800     2.0720 ho         1 AV0       0.530000
    147 OAL          4.5700    -1.0540    -3.0230 oh         1 AV0      -0.713000
    148 CBI         -1.5280     3.4850     2.2840 c3         1 AV0      -0.073400
    149 CBJ          1.5240    -3.5360     2.2450 c3         1 AV0      -0.073400
    150 H26         -7.8360    -3.7880     0.3080 ho         1 AV0       0.537500
    151 OAJ         10.0070    -1.6250    -2.8010 oh         1 AV0      -0.719000
    152 H66          0.3180     1.4470     2.6310 hc         1 AV0       0.047200
    153 H67         -1.2820     0.7490     2.6330 hc         1 AV0       0.047200
    154 H68         -0.3220    -1.5020     2.6100 hc         1 AV0       0.047200
    155 H69          1.2780    -0.8040     2.6290 hc         1 AV0       0.047200
    156 H72          0.8000     1.2980    -0.5320 h1         1 AV0       0.038950
    157 H73          1.4770    -0.3270    -0.5550 h1         1 AV0       0.038950
@<TRIPOS>BOND
     1     1     2 1   
     2     1     3 1   
     3     1    10 1   
     4     1    61 1   
     5     2    39 1   
     6     3     4 1   
     7     3     5 1   
     8     3    62 1   
     9     4    63 1   
    10     5     6 1   
    11     5     7 1   
    12     5    64 1   
    13     6    65 1   
    14     7     8 1   
    15     7     9 1   
    16     7    66 1   
    17     8    55 1   
    18     9    10 1   
    19     9    11 1   
    20     9    67 1   
    21    11    12 1   
    22    11    68 1   
    23    11    69 1   
    24    12    70 1   
    25    13    22 1   
    26    13    71 1   
    27    13    72 1   
    28    13    73 1   
    29    14    23 1   
    30    14    74 1   
    31    14    75 1   
    32    14    76 1   
    33    15    48 1   
    34    15   146 1   
    35    16    50 1   
    36    16    80 1   
    37    17    52 1   
    38    17    81 1   
    39    18    53 1   
    40    18    82 1   
    41    19    57 1   
    42    19    83 1   
    43    20    58 1   
    44    20    84 1   
    45    21    60 1   
    46    21    85 1   
    47    22    24 1   
    48    22    86 1   
    49    22    87 1   
    50    23    25 1   
    51    23    88 1   
    52    23    89 1   
    53    24    26 1   
    54    24    90 1   
    55    24    91 1   
    56    25    27 1   
    57    25    92 1   
    58    25    93 1   
    59    26    28 1   
    60    26    94 1   
    61    26    95 1   
    62    27    29 1   
    63    27    96 1   
    64    27    97 1   
    65    28    30 1   
    66    28    98 1   
    67    28    99 1   
    68    29    31 1   
    69    29   100 1   
    70    29   101 1   
    71    30    32 1   
    72    30   102 1   
    73    30   103 1   
    74    31    33 1   
    75    31   104 1   
    76    31   105 1   
    77    32   106 1   
    78    32   107 1   
    79    32   148 1   
    80    33   108 1   
    81    33   109 1   
    82    33   149 1   
    83    34   114 1   
    84    34   115 1   
    85    34   143 1   
    86    34   148 1   
    87    35   116 1   
    88    35   117 1   
    89    35   144 1   
    90    35   149 1   
    91    36    45 1   
    92    36   118 1   
    93    36   119 1   
    94    36   142 1   
    95    37    46 1   
    96    37   120 1   
    97    37   121 1   
    98    37   151 1   
    99    38    47 1   
   100    38   122 1   
   101    38   123 1   
   102    38   147 1   
   103    39    51 1   
   104    39   124 1   
   105    39   125 1   
   106    40    49 1   
   107    40   145 1   
   108    41    47 1   
   109    41    49 1   
   110    42    45 1   
   111    42    55 1   
   112    43    46 1   
   113    43    56 1   
   114    44    54 1   
   115    44    56 1   
   116    45    52 1   
   117    45   126 1   
   118    46    53 1   
   119    46   127 1   
   120    47    54 1   
   121    47   128 1   
   122    48    50 1   
   123    48    54 1   
   124    48   129 1   
   125    49    50 1   
   126    49   130 1   
   127    50   131 1   
   128    51   143 1   
   129    51   144 1   
   130    51   145 1   
   131    52    57 1   
   132    52   132 1   
   133    53    58 1   
   134    53   133 1   
   135    54   134 1   
   136    55    59 1   
   137    55   135 1   
   138    56    60 1   
   139    56   136 1   
   140    57    59 1   
   141    57   137 1   
   142    58    60 1   
   143    58   138 1   
   144    59   139 1   
   145    59   141 1   
   146    60   140 1   
   147    77   142 1   
   148    78   151 1   
   149    79   147 1   
   150   110   148 1   
   151   111   148 1   
   152   112   149 1   
   153   113   149 1   
   154   141   150 1   
   155   143   152 1   
   156   143   153 1   
   157   144   154 1   
   158   144   155 1   
   159   145   156 1   
   160   145   157 1   
@<TRIPOS>SUBSTRUCTURE
     1 AV0         1 TEMP              0 ****  ****    0 ROOT
