@<TRIPOS>MOLECULE
AV0
  157   160     1     0     0
SMALL
bcc


@<TRIPOS>ATOM
      1 C1          -2.9780    -1.5720     0.1590 c6         1 AV0       0.318900
      2 O1          -1.9910    -0.9320     0.8710 os         1 AV0      -0.404100
      3 C2          -3.6240    -2.6070     1.0760 c6         1 AV0       0.088100
      4 O2          -2.7200    -3.6300     1.4110 oh         1 AV0      -0.602800
      5 C3          -4.8010    -3.2450     0.3570 c6         1 AV0       0.142100
      6 O3          -5.5120    -4.1200     1.2020 oh         1 AV0      -0.605800
      7 C4          -5.7630    -2.1700    -0.1360 c6         1 AV0       0.131100
      8 O4          -6.7760    -2.8150    -0.8720 os         1 AV0      -0.449600
      9 C5          -4.9920    -1.1620    -1.0020 c6         1 AV0       0.138600
     10 O5          -3.9300    -0.6220    -0.2420 os         1 AV0      -0.417100
     11 C6          -5.8510    -0.0050    -1.4630 c3         1 AV0       0.141400
     12 O6          -5.0650     0.8380    -2.2730 oh         1 AV0      -0.590800
     13 CAA         -3.0960    12.2510     2.5190 c3         1 AV0      -0.088100
     14 CAB          1.5880   -12.5990     2.5280 c3         1 AV0      -0.088100
     15 OAN          6.0960     3.8790     1.4390 oh         1 AV0      -0.605800
     16 OAP          3.3160     3.3940     1.8230 oh         1 AV0      -0.602800
     17 OAQ         -9.4690    -4.4870    -3.9820 oh         1 AV0      -0.596800
     18 OAR          9.4790     4.8490    -4.1280 oh         1 AV0      -0.596800
     19 OAS         -9.6520    -5.8540    -1.4920 oh         1 AV0      -0.604800
     20 OAT          9.9110     6.0050    -1.5600 oh         1 AV0      -0.604800
     21 OAV          8.7790     4.5610     0.6690 oh         1 AV0      -0.604800
     22 CAW         -2.8860    10.8950     3.1780 c3         1 AV0      -0.074900
     23 CAX          1.4220   -11.2540     3.2220 c3         1 AV0      -0.074900
     24 CAY         -2.3890     9.8310     2.2060 c3         1 AV0      -0.075400
     25 CAZ          1.4210   -10.0830     2.2460 c3         1 AV0      -0.075400
     26 CBA         -2.1800     8.4700     2.8590 c3         1 AV0      -0.074400
     27 CBB          1.2700    -8.7280     2.9260 c3         1 AV0      -0.074400
     28 CBC         -1.6910     7.4020     1.8890 c3         1 AV0      -0.074400
     29 CBD          1.2600    -7.5640     1.9440 c3         1 AV0      -0.074400
     30 CBE         -1.4870     6.0430     2.5470 c3         1 AV0      -0.073900
     31 CBF          1.1120    -6.2050     2.6180 c3         1 AV0      -0.073900
     32 CBG         -1.0080     4.9680     1.5800 c3         1 AV0      -0.075900
     33 CBH          1.0790    -5.0480     1.6280 c3         1 AV0      -0.075900
     34 CBK         -0.3510     2.5300     1.2690 c3         1 AV0      -0.077900
     35 CBL          0.8310    -2.5400     1.2940 c3         1 AV0      -0.077900
     36 CBM         -9.4930    -1.5670    -3.8230 c3         1 AV0       0.146400
     37 CBN          9.5580     1.9250    -4.2140 c3         1 AV0       0.146400
     38 CBP          6.1350     0.1600    -1.7590 c3         1 AV0       0.141400
     39 CBS         -0.9380    -0.3640     0.1180 c3         1 AV0       0.146400
     40 OBV          2.4620     0.8290     0.9400 os         1 AV0      -0.404100
     41 OBX          4.3250     0.6340    -0.3210 os         1 AV0      -0.417100
     42 OBY         -8.7380    -1.8480    -1.6080 os         1 AV0      -0.408100
     43 OBZ          9.0130     2.0110    -1.9220 os         1 AV0      -0.408100
     44 OCB          7.1240     2.8910    -0.9240 os         1 AV0      -0.449600
     45 CCC         -8.7930    -2.5070    -2.8650 c6         1 AV0       0.145600
     46 CCD          8.9420     2.7720    -3.1200 c6         1 AV0       0.145600
     47 CCF          5.3300     1.2560    -1.0960 c6         1 AV0       0.138600
     48 CCH          5.2910     3.1420     0.5490 c6         1 AV0       0.142100
     49 CCJ          3.4290     1.5380     0.2680 c6         1 AV0       0.318900
     50 CCL          4.1650     2.4180     1.2720 c6         1 AV0       0.088100
     51 CCM          0.2180    -0.0110     1.0570 c3         1 AV0      -0.039000
     52 CCN         -9.5260    -3.8430    -2.7330 c6         1 AV0       0.128100
     53 CCO          9.6710     4.1050    -2.9500 c6         1 AV0       0.128100
     54 CCQ          6.1860     2.1470    -0.1830 c6         1 AV0       0.131100
     55 CCR         -8.1200    -2.5500    -0.5770 c6         1 AV0       0.317900
     56 CCS          8.4910     2.6180    -0.7830 c6         1 AV0       0.317900
     57 CCT         -8.8840    -4.6810    -1.6330 c6         1 AV0       0.083600
     58 CCU          9.1370     4.8390    -1.7250 c6         1 AV0       0.083600
     59 CCV         -8.8400    -3.8770    -0.3360 c6         1 AV0       0.093100
     60 CCW          9.2240     3.9290    -0.5010 c6         1 AV0       0.093100
     61 H1          -2.5610    -2.0830    -0.7300 h2         1 AV0       0.034200
     62 H2          -3.9940    -2.0870     1.9720 h1         1 AV0       0.068200
     63 H3          -2.0490    -3.2600     1.9930 ho         1 AV0       0.429000
     64 H4          -4.4190    -3.7830    -0.5250 h1         1 AV0       0.055700
     65 H5          -4.9570    -4.8820     1.3980 ho         1 AV0       0.431000
     66 H6          -6.1870    -1.6400     0.7290 h1         1 AV0       0.065700
     67 H7          -4.6000    -1.6930    -1.8860 h1         1 AV0       0.059700
     68 H8          -6.7130    -0.3930    -2.0110 h1         1 AV0       0.044950
     69 H9          -6.2380     0.5230    -0.5790 h1         1 AV0       0.044950
     70 H10         -5.6510     1.4700    -2.6990 ho         1 AV0       0.408000
     71 H11         -3.4630    12.9900     3.2320 hc         1 AV0       0.031367
     72 H12         -2.1660    12.6340     2.0960 hc         1 AV0       0.031367
     73 H13         -3.8220    12.1850     1.7070 hc         1 AV0       0.031367
     74 H14          0.7860   -12.7730     1.8080 hc         1 AV0       0.031367
     75 H15          2.5330   -12.6450     1.9820 hc         1 AV0       0.031367
     76 H16          1.5780   -13.4250     3.2400 hc         1 AV0       0.031367
     77 H17         -9.1440     0.1690    -4.6050 ho         1 AV0       0.406000
     78 H18          9.1610     0.2530    -5.1010 ho         1 AV0       0.406000
     79 H19          5.8210    -1.1840    -3.1130 ho         1 AV0       0.408000
     80 H21          2.6860     2.9560     2.4030 ho         1 AV0       0.429000
     81 H22         -9.9500    -5.3180    -3.9150 ho         1 AV0       0.426000
     82 H23          9.9470     5.6850    -4.0350 ho         1 AV0       0.426000
     83 H24         -9.2140    -6.4250    -0.8520 ho         1 AV0       0.424000
     84 H25          9.5210     6.5260    -0.8510 ho         1 AV0       0.424000
     85 H27          7.8160     4.4620     0.7560 ho         1 AV0       0.438500
     86 H28         -2.1720    10.9930     4.0020 hc         1 AV0       0.036700
     87 H29         -3.8250    10.5600     3.6300 hc         1 AV0       0.036700
     88 H30          0.4900   -11.2480     3.7950 hc         1 AV0       0.036700
     89 H31          2.2270   -11.1160     3.9510 hc         1 AV0       0.036700
     90 H32         -3.1050     9.7320     1.3820 hc         1 AV0       0.036700
     91 H33         -1.4500    10.1650     1.7520 hc         1 AV0       0.036700
     92 H34          2.3510   -10.0960     1.6650 hc         1 AV0       0.036700
     93 H35          0.6110   -10.2180     1.5220 hc         1 AV0       0.036700
     94 H36         -1.4610     8.5690     3.6810 hc         1 AV0       0.036700
     95 H37         -3.1190     8.1400     3.3160 hc         1 AV0       0.036700
     96 H38          0.3450    -8.7160     3.5130 hc         1 AV0       0.036700
     97 H39          2.0860    -8.5900     3.6450 hc         1 AV0       0.036700
     98 H40         -2.4090     7.3030     1.0670 hc         1 AV0       0.037450
     99 H41         -0.7500     7.7290     1.4330 hc         1 AV0       0.037450
    100 H42          2.1830    -7.5780     1.3540 hc         1 AV0       0.037450
    101 H43          0.4420    -7.7020     1.2280 hc         1 AV0       0.037450
    102 H44         -0.7660     6.1410     3.3670 hc         1 AV0       0.036950
    103 H45         -2.4280     5.7200     3.0070 hc         1 AV0       0.036950
    104 H46          0.1950    -6.1940     3.2170 hc         1 AV0       0.036950
    105 H47          1.9370    -6.0590     3.3240 hc         1 AV0       0.036950
    106 H48         -1.7270     4.8730     0.7590 hc         1 AV0       0.039200
    107 H49         -0.0640     5.2860     1.1220 hc         1 AV0       0.039200
    108 H50          1.9930    -5.0570     1.0230 hc         1 AV0       0.039200
    109 H51          0.2500    -5.1970     0.9260 hc         1 AV0       0.039200
    110 H52         -0.0860     3.7020     3.0550 hc         1 AV0       0.035700
    111 H53         -1.7530     3.2960     2.7090 hc         1 AV0       0.035700
    112 H54          0.0300    -3.6940     2.9280 hc         1 AV0       0.035700
    113 H55          1.7640    -3.5150     2.9780 hc         1 AV0       0.035700
    114 H56         -1.0820     2.4490     0.4580 hc         1 AV0       0.041200
    115 H57          0.5850     2.8560     0.8050 hc         1 AV0       0.041200
    116 H58          1.7550    -2.5010     0.7090 hc         1 AV0       0.041200
    117 H59          0.0360    -2.7710     0.5780 hc         1 AV0       0.041200
    118 H60        -10.4880    -1.3260    -3.4210 h1         1 AV0       0.037200
    119 H61         -9.6480    -2.0900    -4.7720 h1         1 AV0       0.037200
    120 H62         10.5850     1.6650    -3.9230 h1         1 AV0       0.037200
    121 H63          9.6250     2.5300    -5.1240 h1         1 AV0       0.037200
    122 H64          6.5860    -0.4700    -0.9790 h1         1 AV0       0.044950
    123 H65          6.9540     0.6080    -2.3250 h1         1 AV0       0.044950
    124 H70         -0.6060    -1.0750    -0.6510 h1         1 AV0       0.038950
    125 H71         -1.2820     0.5310    -0.4120 h1         1 AV0       0.038950
    126 H74         -7.7790    -2.6980    -3.2420 h1         1 AV0       0.076700
    127 H75          7.8940     2.9750    -3.3810 h1         1 AV0       0.076700
    128 H76          4.8740     1.8900    -1.8740 h1         1 AV0       0.059700
    129 H77          4.8390     3.8060    -0.2050 h1         1 AV0       0.055700
    130 H78          2.9750     2.1790    -0.5120 h2         1 AV0       0.034200
    131 H79          4.5960     1.7720     2.0510 h1         1 AV0       0.068200
    132 H80        -10.5700    -3.6410    -2.4410 h1         1 AV0       0.048700
    133 H81         10.7410     3.8990    -2.7850 h1         1 AV0       0.048700
    134 H82          6.6920     1.5090     0.5560 h1         1 AV0       0.065700
    135 H83         -8.1970    -1.9110     0.3100 h2         1 AV0       0.083700
    136 H84          8.6550     1.9090     0.0370 h2         1 AV0       0.083700
    137 H85         -7.8560    -4.9260    -1.9410 h1         1 AV0       0.057700
    138 H86          8.0840     5.0980    -1.9090 h1         1 AV0       0.057700
    139 H87         -9.8700    -3.6360    -0.0500 h1         1 AV0       0.089200
    140 H88         10.2790     3.6770    -0.3390 h1         1 AV0       0.089200
    141 OAU         -8.2900    -4.6060     0.7280 oh         1 AV0      -0.604800
    142 OAI         -8.6990    -0.4160    -3.9850 oh         1 AV0      -0.596800
    143 CBQ         -0.1610     1.1820     1.9570 c3         1 AV0      -0.063900
    144 CBR          0.5670    -1.2000     1.9740 c3         1 AV0      -0.063900
    145 CBT          1.3980     0.3350     0.1500 c3         1 AV0       0.146400
    146 H20          5.5750     4.6040     1.8020 ho         1 AV0       0.431000
    147 OAL          5.2780    -0.5820    -2.5970 oh         1 AV0      -0.590800
    148 CBI         -0.8140     3.6090     2.2410 c3         1 AV0      -0.073400
    149 CBJ          0.9260    -3.6870     2.2950 c3         1 AV0      -0.073400
    150 H26         -7.3190    -4.5540     0.6990 ho         1 AV0       0.438500
    151 OAJ          8.7610     0.7820    -4.4060 oh         1 AV0      -0.596800
    152 H66          0.6030     1.2890     2.7330 hc         1 AV0       0.047200
    153 H67         -1.0820     0.9220     2.4880 hc         1 AV0       0.047200
    154 H68         -0.2470    -1.3260     2.6950 hc         1 AV0       0.047200
    155 H69          1.4400    -0.9280     2.5740 hc         1 AV0       0.047200
    156 H72          1.1030     1.0910    -0.5910 h1         1 AV0       0.038950
    157 H73          1.7160    -0.5520    -0.4100 h1         1 AV0       0.038950
@<TRIPOS>BOND
     1     1     2 1   
     2     1     3 1   
     3     1    10 1   
     4     1    61 1   
     5     2    39 1   
     6     3     4 1   
     7     3     5 1   
     8     3    62 1   
     9     4    63 1   
    10     5     6 1   
    11     5     7 1   
    12     5    64 1   
    13     6    65 1   
    14     7     8 1   
    15     7     9 1   
    16     7    66 1   
    17     8    55 1   
    18     9    10 1   
    19     9    11 1   
    20     9    67 1   
    21    11    12 1   
    22    11    68 1   
    23    11    69 1   
    24    12    70 1   
    25    13    22 1   
    26    13    71 1   
    27    13    72 1   
    28    13    73 1   
    29    14    23 1   
    30    14    74 1   
    31    14    75 1   
    32    14    76 1   
    33    15    48 1   
    34    15   146 1   
    35    16    50 1   
    36    16    80 1   
    37    17    52 1   
    38    17    81 1   
    39    18    53 1   
    40    18    82 1   
    41    19    57 1   
    42    19    83 1   
    43    20    58 1   
    44    20    84 1   
    45    21    60 1   
    46    21    85 1   
    47    22    24 1   
    48    22    86 1   
    49    22    87 1   
    50    23    25 1   
    51    23    88 1   
    52    23    89 1   
    53    24    26 1   
    54    24    90 1   
    55    24    91 1   
    56    25    27 1   
    57    25    92 1   
    58    25    93 1   
    59    26    28 1   
    60    26    94 1   
    61    26    95 1   
    62    27    29 1   
    63    27    96 1   
    64    27    97 1   
    65    28    30 1   
    66    28    98 1   
    67    28    99 1   
    68    29    31 1   
    69    29   100 1   
    70    29   101 1   
    71    30    32 1   
    72    30   102 1   
    73    30   103 1   
    74    31    33 1   
    75    31   104 1   
    76    31   105 1   
    77    32   106 1   
    78    32   107 1   
    79    32   148 1   
    80    33   108 1   
    81    33   109 1   
    82    33   149 1   
    83    34   114 1   
    84    34   115 1   
    85    34   143 1   
    86    34   148 1   
    87    35   116 1   
    88    35   117 1   
    89    35   144 1   
    90    35   149 1   
    91    36    45 1   
    92    36   118 1   
    93    36   119 1   
    94    36   142 1   
    95    37    46 1   
    96    37   120 1   
    97    37   121 1   
    98    37   151 1   
    99    38    47 1   
   100    38   122 1   
   101    38   123 1   
   102    38   147 1   
   103    39    51 1   
   104    39   124 1   
   105    39   125 1   
   106    40    49 1   
   107    40   145 1   
   108    41    47 1   
   109    41    49 1   
   110    42    45 1   
   111    42    55 1   
   112    43    46 1   
   113    43    56 1   
   114    44    54 1   
   115    44    56 1   
   116    45    52 1   
   117    45   126 1   
   118    46    53 1   
   119    46   127 1   
   120    47    54 1   
   121    47   128 1   
   122    48    50 1   
   123    48    54 1   
   124    48   129 1   
   125    49    50 1   
   126    49   130 1   
   127    50   131 1   
   128    51   143 1   
   129    51   144 1   
   130    51   145 1   
   131    52    57 1   
   132    52   132 1   
   133    53    58 1   
   134    53   133 1   
   135    54   134 1   
   136    55    59 1   
   137    55   135 1   
   138    56    60 1   
   139    56   136 1   
   140    57    59 1   
   141    57   137 1   
   142    58    60 1   
   143    58   138 1   
   144    59   139 1   
   145    59   141 1   
   146    60   140 1   
   147    77   142 1   
   148    78   151 1   
   149    79   147 1   
   150   110   148 1   
   151   111   148 1   
   152   112   149 1   
   153   113   149 1   
   154   141   150 1   
   155   143   152 1   
   156   143   153 1   
   157   144   154 1   
   158   144   155 1   
   159   145   156 1   
   160   145   157 1   
@<TRIPOS>SUBSTRUCTURE
     1 AV0         1 TEMP              0 ****  ****    0 ROOT
