@<TRIPOS>MOLECULE
AV1
   56    59     1     0     0
SMALL
No Charge or Current Charge


@<TRIPOS>ATOM
      1 Br1         -0.4520     0.3910     1.4950 br         1 AV1       0.181700
      2 O3           2.2610     1.9550     0.0130 os         1 AV1      -0.679800
      3 PA           2.4020     3.1430    -1.0140 p5         1 AV1       1.463800
      4 PN           3.1490     2.1440     1.2980 p5         1 AV1       1.451800
      5 C1          -2.3850     0.2670    -1.3250 c5         1 AV1       0.323300
      6 N1A         -3.9680    -4.6190    -0.2220 nb         1 AV1      -0.325000
      7 O1A          3.6330     3.0490    -1.8540 o          1 AV1      -0.847500
      8 C1D          5.4210    -1.2970    -0.9040 c5         1 AV1       0.130600
      9 O1N          2.5480     3.1140     2.2610 o          1 AV1      -0.848000
     10 C2          -3.1240     1.5370    -0.7990 c5         1 AV1       0.067300
     11 O2          -4.5610     1.4130    -0.7170 oh         1 AV1      -0.708000
     12 C2A         -4.2590    -3.7970    -1.2570 ca         1 AV1       0.150900
     13 O2A          2.2090     4.5090    -0.4420 o          1 AV1      -0.847500
     14 C2D          4.9100    -2.7050    -0.4300 c5         1 AV1       0.079300
     15 O2D          5.1180    -3.7490    -1.4090 oh         1 AV1      -0.734000
     16 O2N          4.5960     2.4150     1.0510 o          1 AV1      -0.848000
     17 C3          -2.7070     2.5330    -1.9160 c5         1 AV1       0.097300
     18 O6          -3.5390     2.3270    -3.0640 oh         1 AV1      -0.715000
     19 N3A         -3.7840    -2.5440    -1.4540 nb         1 AV1      -0.206000
     20 C3D          3.3750    -2.4750    -0.1980 c5         1 AV1       0.139300
     21 O3D          2.6800    -2.9080    -1.3690 oh         1 AV1      -0.717000
     22 C4          -1.2070     2.1220    -2.1570 c5         1 AV1       0.166300
     23 O4          -1.0760     0.7580    -1.6590 os         1 AV1      -0.400000
     24 C4A         -2.9340    -2.0800    -0.5150 ca         1 AV1       0.119500
     25 C4D          3.3080    -0.9290     0.0190 c5         1 AV1       0.155300
     26 O4D          4.2530    -0.4520    -0.9700 os         1 AV1      -0.410000
     27 C5          -0.1900     3.0420    -1.4290 c3         1 AV1       0.216600
     28 O5           1.1260     2.7540    -1.9170 os         1 AV1      -0.554400
     29 C5A         -2.5730    -2.8340     0.5740 ca         1 AV1      -0.082600
     30 C5D          3.7110    -0.4820     1.4660 c3         1 AV1       0.216600
     31 O5D          2.9540     0.6600     1.9050 os         1 AV1      -0.558400
     32 C6A         -3.1180    -4.1310     0.6940 ca         1 AV1       0.432900
     33 N6A         -2.8330    -4.9580     1.7370 nv         1 AV1      -1.073900
     34 N7A         -1.6970    -2.1640     1.4200 nc         1 AV1      -0.555100
     35 C8A         -1.5490    -0.9860     0.7860 cd         1 AV1       0.342800
     36 N9A         -2.2910    -0.8720    -0.4100 na         1 AV1      -0.269300
     37 H1          -2.8760    -0.1020    -2.2350 h2         1 AV1       0.093700
     38 H2          -2.7070     1.8530     0.1690 h1         1 AV1       0.078700
     39 HO2         -4.7670     0.8140     0.0410 ho         1 AV1       0.498000
     40 H2A         -4.9470    -4.1810    -2.0090 h5         1 AV1       0.025100
     41 H2D          5.3960    -2.9720     0.5200 h1         1 AV1       0.060700
     42 HO2D         6.0860    -3.9450    -1.4300 ho         1 AV1       0.500000
     43 H3          -2.7920     3.5730    -1.5700 h1         1 AV1       0.050700
     44 HO3         -4.4000     2.0360    -2.6710 ho         1 AV1       0.501000
     45 H3D          3.0140    -3.0250     0.6830 h1         1 AV1       0.052700
     46 HO3D         3.4080    -3.4050    -1.8310 ho         1 AV1       0.499000
     47 H4          -0.9750     2.1360    -3.2310 h1         1 AV1       0.088700
     48 H4D          2.3020    -0.5530    -0.2100 h1         1 AV1       0.089700
     49 H5          -0.4430     4.0890    -1.6420 h1         1 AV1       0.012200
     50 H5'A        -0.2640     2.8860    -0.3450 h1         1 AV1       0.012200
     51 H5D          3.5120    -1.3150     2.1520 h1         1 AV1       0.012200
     52 H5DA         4.7870    -0.2760     1.5230 h1         1 AV1       0.012200
     53 HN6A        -3.4600    -5.7390     1.9120 hn         1 AV1       0.495500
     54 HN6B        -2.3760    -4.5430     2.5460 hn         1 AV1       0.495500
     55 H1D          6.1340    -0.8690    -0.1860 h1         1 AV1       0.033200
     56 H1DA         5.9010    -1.3250    -1.8910 h1         1 AV1       0.033200
@<TRIPOS>BOND
     1     1    35 1   
     2     2     3 1   
     3     2     4 1   
     4     3     7 1   
     5     3    13 1   
     6     3    28 1   
     7     4     9 1   
     8     4    16 1   
     9     4    31 1   
    10     5    10 1   
    11     5    23 1   
    12     5    36 1   
    13     5    37 1   
    14     6    12 ar  
    15     6    32 ar  
    16     8    14 1   
    17     8    26 1   
    18     8    55 1   
    19     8    56 1   
    20    10    11 1   
    21    10    17 1   
    22    10    38 1   
    23    11    39 1   
    24    12    19 ar  
    25    12    40 1   
    26    14    15 1   
    27    14    20 1   
    28    14    41 1   
    29    15    42 1   
    30    17    18 1   
    31    17    22 1   
    32    17    43 1   
    33    18    44 1   
    34    19    24 ar  
    35    20    21 1   
    36    20    25 1   
    37    20    45 1   
    38    21    46 1   
    39    22    23 1   
    40    22    27 1   
    41    22    47 1   
    42    24    29 ar  
    43    24    36 1   
    44    25    26 1   
    45    25    30 1   
    46    25    48 1   
    47    27    28 1   
    48    27    49 1   
    49    27    50 1   
    50    29    32 ar  
    51    29    34 1   
    52    30    31 1   
    53    30    51 1   
    54    30    52 1   
    55    32    33 1   
    56    33    53 1   
    57    33    54 1   
    58    34    35 2   
    59    35    36 1   
@<TRIPOS>SUBSTRUCTURE
     1 AV1         1 TEMP              0 ****  ****    0 ROOT
