@<TRIPOS>MOLECULE
AV1
   56    59     1     0     0
SMALL
abcg2


@<TRIPOS>ATOM
      1 BR1         -1.7020     0.3000     1.3520 br         1 AV1       0.181700
      2 O3           2.0780     0.8000    -0.1060 os         1 AV1      -0.679800
      3 PA           1.1630     2.1320     0.1550 p5         1 AV1       1.463800
      4 PN           3.0040     0.0970     1.0540 p5         1 AV1       1.451800
      5 C1          -3.6560     0.4620    -1.3810 c5         1 AV1       0.323300
      6 N1A         -6.4650    -3.5090     0.0550 nb         1 AV1      -0.325000
      7 O1A          1.9190     3.3690    -0.2140 o          1 AV1      -0.847500
      8 C1D          7.8100    -0.9120    -1.5760 c5         1 AV1       0.130600
      9 O1N          2.2740    -1.0510     1.6760 o          1 AV1      -0.848000
     10 C2          -4.1180     1.8720    -1.0240 c5         1 AV1       0.067300
     11 O2          -5.5090     1.9540    -1.1020 oh         1 AV1      -0.708000
     12 C2A         -6.4710    -2.7520    -1.0390 ca         1 AV1       0.150900
     13 O2A          0.4780     2.0500     1.4890 o          1 AV1      -0.847500
     14 C2D          8.2100    -1.6630    -0.3090 c5         1 AV1       0.079300
     15 O2D          9.4660    -2.2800    -0.3520 oh         1 AV1      -0.734000
     16 O2N          3.6480     1.1430     1.9080 o          1 AV1      -0.848000
     17 C3          -3.3600     2.6780    -2.0870 c5         1 AV1       0.097300
     18 O6          -3.9830     2.5700    -3.3400 oh         1 AV1      -0.715000
     19 N3A         -5.6860    -1.7310    -1.3360 nb         1 AV1      -0.206000
     20 C3D          7.0980    -2.7080    -0.2220 c5         1 AV1       0.139300
     21 O3D          7.3070    -3.7670    -1.1240 oh         1 AV1      -0.717000
     22 C4          -2.0280     1.9360    -2.1240 c5         1 AV1       0.166300
     23 O4          -2.3130     0.5860    -1.7360 os         1 AV1      -0.400000
     24 C4A         -4.7990    -1.4940    -0.3750 ca         1 AV1       0.119500
     25 C4D          5.8930    -1.9010    -0.6900 c5         1 AV1       0.155300
     26 O4D          6.3950    -0.8970    -1.5680 os         1 AV1      -0.410000
     27 C5          -1.0210     2.5970    -1.1990 c3         1 AV1       0.216600
     28 O5           0.1020     1.7640    -1.0490 os         1 AV1      -0.554400
     29 C5A         -4.6670    -2.1970     0.8080 ca         1 AV1      -0.082600
     30 C5D          5.1520    -1.2680     0.4730 c3         1 AV1       0.216600
     31 O5D          4.0970    -0.4830    -0.0350 os         1 AV1      -0.558400
     32 C6A         -5.5660    -3.2600     1.0130 ca         1 AV1       0.432900
     33 N6A         -5.5390    -4.0270     2.1040 nv         1 AV1      -1.073900
     34 N7A         -3.6380    -1.6950     1.5610 nc         1 AV1      -0.555100
     35 C8A         -3.1700    -0.7140     0.8560 cd         1 AV1       0.342800
     36 N9A         -3.8260    -0.5280    -0.3400 na         1 AV1      -0.269300
     37 H1          -4.2630     0.0900    -2.2160 h2         1 AV1       0.093700
     38 H2          -3.7490     2.1490    -0.0290 h1         1 AV1       0.078700
     39 HO2         -5.8030     2.7250    -0.6070 ho         1 AV1       0.498000
     40 H2A         -7.2200    -3.0090    -1.7810 h5         1 AV1       0.025100
     41 H2D          8.1240    -0.9920     0.5550 h1         1 AV1       0.060700
     42 HO2D        10.1480    -1.6010    -0.3540 ho         1 AV1       0.500000
     43 H3          -3.2320     3.7280    -1.7890 h1         1 AV1       0.050700
     44 HO3         -4.9220     2.7580    -3.2230 ho         1 AV1       0.501000
     45 H3D          6.9670    -3.0790     0.8040 h1         1 AV1       0.052700
     46 HO3D         8.1800    -4.1370    -0.9560 ho         1 AV1       0.499000
     47 H4          -1.6230     1.9150    -3.1410 h1         1 AV1       0.088700
     48 H4D          5.1950    -2.5430    -1.2400 h1         1 AV1       0.089700
     49 H5          -0.7490     3.5580    -1.6520 h1         1 AV1       0.012200
     50 H5'A        -1.4810     2.8230    -0.2310 h1         1 AV1       0.012200
     51 H5D          4.7760    -2.0730     1.1160 h1         1 AV1       0.012200
     52 H5DA         5.8380    -0.6620     1.0790 h1         1 AV1       0.012200
     53 HN6A        -6.2560    -4.7170     2.2500 hn         1 AV1       0.495500
     54 HN6B        -4.9410    -3.7990     2.8790 hn         1 AV1       0.495500
     55 H1D          8.1790     0.1150    -1.5960 h1         1 AV1       0.033200
     56 H1DA         8.2000    -1.4310    -2.4600 h1         1 AV1       0.033200
@<TRIPOS>BOND
     1     1    35 1   
     2     2     3 1   
     3     2     4 1   
     4     3     7 1   
     5     3    13 1   
     6     3    28 1   
     7     4     9 1   
     8     4    16 1   
     9     4    31 1   
    10     5    10 1   
    11     5    23 1   
    12     5    36 1   
    13     5    37 1   
    14     6    12 ar  
    15     6    32 ar  
    16     8    14 1   
    17     8    26 1   
    18     8    55 1   
    19     8    56 1   
    20    10    11 1   
    21    10    17 1   
    22    10    38 1   
    23    11    39 1   
    24    12    19 ar  
    25    12    40 1   
    26    14    15 1   
    27    14    20 1   
    28    14    41 1   
    29    15    42 1   
    30    17    18 1   
    31    17    22 1   
    32    17    43 1   
    33    18    44 1   
    34    19    24 ar  
    35    20    21 1   
    36    20    25 1   
    37    20    45 1   
    38    21    46 1   
    39    22    23 1   
    40    22    27 1   
    41    22    47 1   
    42    24    29 ar  
    43    24    36 1   
    44    25    26 1   
    45    25    30 1   
    46    25    48 1   
    47    27    28 1   
    48    27    49 1   
    49    27    50 1   
    50    29    32 ar  
    51    29    34 1   
    52    30    31 1   
    53    30    51 1   
    54    30    52 1   
    55    32    33 1   
    56    33    53 1   
    57    33    54 1   
    58    34    35 2   
    59    35    36 1   
@<TRIPOS>SUBSTRUCTURE
     1 AV1         1 TEMP              0 ****  ****    0 ROOT
