@<TRIPOS>MOLECULE
AV3
   60    64     1     0     0
SMALL
No Charge or Current Charge


@<TRIPOS>ATOM
      1 C01         -6.0880     0.0890    -0.4800 ca         1 AV3      -0.166300
      2 C02         -0.6380     0.2230     0.9110 ca         1 AV3      -0.136000
      3 C03         -2.0130     0.4690     1.1490 ca         1 AV3       0.367300
      4 C04         -6.9750    -0.2890     0.5100 ca         1 AV3       0.127400
      5 C05         -4.7040    -0.0010    -0.2690 ca         1 AV3       0.207000
      6 C06          0.2280     1.3390     0.8370 ca         1 AV3       0.058000
      7 C07         -6.8500     0.5610    -1.7050 c5         1 AV3      -0.124400
      8 C08         -0.1300    -1.0840     0.7470 ca         1 AV3      -0.140000
      9 C09         -4.2330    -0.4810     0.9820 ca         1 AV3       0.065100
     10 C10         -8.2660     0.3570    -1.1550 c2         1 AV3       0.415300
     11 C11          1.5970     1.1330     0.5990 ca         1 AV3      -0.195000
     12 C12          1.2480    -1.2870     0.5070 ca         1 AV3       0.113100
     13 C13          2.1140    -0.1710     0.4330 ca         1 AV3       0.169100
     14 C14         -1.5750     2.7210     1.2240 ca         1 AV3       0.157900
     15 C15         -6.5420    -0.7770     1.7490 ca         1 AV3      -0.079000
     16 C16         -5.1530    -0.8750     1.9800 ca         1 AV3      -0.080000
     17 C17          6.9160     1.0940    -0.2740 c3         1 AV3       0.171800
     18 C18          5.7960     0.0390    -0.1600 c3         1 AV3      -0.082400
     19 C19         -9.5220     0.6610    -1.9330 c3         1 AV3      -0.130400
     20 C20          9.3000     1.5360    -0.8440 c5         1 AV3       0.156300
     21 C21          8.8490    -0.3770     0.3650 c5         1 AV3       0.156300
     22 C22          4.4190     0.6710     0.1050 c3         1 AV3       0.158600
     23 C23          0.9800    -3.7480     0.3980 c3         1 AV3       0.142900
     24 C24         10.2470    -0.6420    -0.2570 c5         1 AV3      -0.079400
     25 C25         10.5240     0.6270    -1.1240 c5         1 AV3      -0.079400
     26 F01         -3.8460     0.3510    -1.2550 f          1 AV3      -0.161000
     27 N01         -8.2810    -0.1110     0.0620 ne         1 AV3      -0.543100
     28 N02         -2.4770     1.7260     1.3130 nb         1 AV3      -0.265000
     29 N03         -0.2540     2.5900     0.9950 nb         1 AV3      -0.189000
     30 N04          8.2380     0.5340    -0.6290 n3         1 AV3      -0.713600
     31 O01         -2.8840    -0.5990     1.2430 os         1 AV3      -0.354400
     32 O02          3.4610    -0.3960     0.1970 os         1 AV3      -0.321100
     33 O03          1.7820    -2.5550     0.3400 os         1 AV3      -0.317100
     34 H1          -6.6610     1.6110    -1.9540 hc         1 AV3       0.091200
     35 H071        -6.6680    -0.0540    -2.5920 hc         1 AV3       0.091200
     36 H081        -0.8100    -1.9290     0.8060 ha         1 AV3       0.138000
     37 H111         2.2450     2.0020     0.5450 ha         1 AV3       0.142000
     38 H141        -1.9500     3.7350     1.3530 h5         1 AV3       0.049100
     39 H151        -7.2590    -1.0730     2.5100 ha         1 AV3       0.139000
     40 H161        -4.7880    -1.2520     2.9330 ha         1 AV3       0.133000
     41 H171         6.6180     1.8210    -1.0430 h1         1 AV3       0.029200
     42 H172         6.9840     1.6410     0.6760 h1         1 AV3       0.029200
     43 H182         5.7530    -0.5400    -1.0900 hc         1 AV3       0.065200
     44 H181         6.0280    -0.6590     0.6520 hc         1 AV3       0.065200
     45 H193        -9.5630     0.0640    -2.8510 hc         1 AV3       0.058367
     46 H192       -10.4220     0.4400    -1.3470 hc         1 AV3       0.058367
     47 H191        -9.5560     1.7190    -2.2160 hc         1 AV3       0.058367
     48 H202         9.0840     2.2080    -1.6860 h1         1 AV3       0.035700
     49 H212         8.2800    -1.3080     0.4970 h1         1 AV3       0.035700
     50 H211         8.9400     0.1100     1.3460 h1         1 AV3       0.035700
     51 H221         4.4530     1.2430     1.0420 h1         1 AV3       0.038700
     52 H222         4.1640     1.3530    -0.7170 h1         1 AV3       0.038700
     53 H231         0.4950    -3.8460     1.3770 h1         1 AV3       0.044033
     54 H233         0.2060    -3.7360    -0.3800 h1         1 AV3       0.044033
     55 H232         1.6070    -4.6340     0.2390 h1         1 AV3       0.044033
     56 H241        11.0080    -0.7950     0.5170 hc         1 AV3       0.046950
     57 H242        10.2360    -1.5440    -0.8810 hc         1 AV3       0.046950
     58 H252        10.5810     0.3670    -2.1870 hc         1 AV3       0.046950
     59 H251        11.4670     1.1200    -0.8600 hc         1 AV3       0.046950
     60 H201         9.4580     2.1520     0.0540 h1         1 AV3       0.035700
@<TRIPOS>BOND
     1     1     4 ar  
     2     1     5 ar  
     3     1     7 1   
     4     2     3 ar  
     5     2     6 ar  
     6     2     8 ar  
     7     3    28 ar  
     8     3    31 1   
     9     4    15 ar  
    10     4    27 1   
    11     5     9 ar  
    12     5    26 1   
    13     6    11 ar  
    14     6    29 ar  
    15     7    10 1   
    16     7    34 1   
    17     7    35 1   
    18     8    12 ar  
    19     8    36 1   
    20     9    16 ar  
    21     9    31 1   
    22    10    19 1   
    23    10    27 2   
    24    11    13 ar  
    25    11    37 1   
    26    12    13 ar  
    27    12    33 1   
    28    13    32 1   
    29    14    28 ar  
    30    14    29 ar  
    31    14    38 1   
    32    15    16 ar  
    33    15    39 1   
    34    16    40 1   
    35    17    18 1   
    36    17    30 1   
    37    17    41 1   
    38    17    42 1   
    39    18    22 1   
    40    18    43 1   
    41    18    44 1   
    42    19    45 1   
    43    19    46 1   
    44    19    47 1   
    45    20    25 1   
    46    20    30 1   
    47    20    48 1   
    48    20    60 1   
    49    21    24 1   
    50    21    30 1   
    51    21    49 1   
    52    21    50 1   
    53    22    32 1   
    54    22    51 1   
    55    22    52 1   
    56    23    33 1   
    57    23    53 1   
    58    23    54 1   
    59    23    55 1   
    60    24    25 1   
    61    24    56 1   
    62    24    57 1   
    63    25    58 1   
    64    25    59 1   
@<TRIPOS>SUBSTRUCTURE
     1 AV3         1 TEMP              0 ****  ****    0 ROOT
