@<TRIPOS>MOLECULE
AV3
   60    64     1     0     0
SMALL
abcg2


@<TRIPOS>ATOM
      1 C01         -6.1820     0.1470    -0.4160 ca         1 AV3      -0.166300
      2 C02         -0.5550     0.0700     0.3210 ca         1 AV3      -0.136000
      3 C03         -1.9280     0.3650     0.4800 ca         1 AV3       0.367300
      4 C04         -6.8420    -0.1320     0.7850 ca         1 AV3       0.127400
      5 C05         -4.8250    -0.0170    -0.4930 ca         1 AV3       0.207000
      6 C06          0.2880     1.1950     0.2850 ca         1 AV3       0.058000
      7 C07         -7.2170     0.5820    -1.3920 c5         1 AV3      -0.124400
      8 C08         -0.0210    -1.2330     0.2010 ca         1 AV3      -0.140000
      9 C09         -4.1170    -0.4500     0.6230 ca         1 AV3       0.065100
     10 C10         -8.4510     0.4870    -0.5300 c2         1 AV3       0.415300
     11 C11          1.6770     1.0040     0.1290 ca         1 AV3      -0.195000
     12 C12          1.3270    -1.4030     0.0490 ca         1 AV3       0.113100
     13 C13          2.1950    -0.2600     0.0140 ca         1 AV3       0.169100
     14 C14         -1.4890     2.5720     0.5390 ca         1 AV3       0.157900
     15 C15         -6.1570    -0.5690     1.9040 ca         1 AV3      -0.079000
     16 C16         -4.7770    -0.7220     1.8090 ca         1 AV3      -0.080000
     17 C17          6.8770     0.9930    -0.2600 c3         1 AV3       0.171800
     18 C18          5.8140    -0.0970    -0.2760 c3         1 AV3      -0.082400
     19 C19         -9.8010     0.8280    -1.0380 c3         1 AV3      -0.130400
     20 C20          9.2120     1.5280    -0.5530 c5         1 AV3       0.156300
     21 C21          8.6870    -0.3560     0.6610 c5         1 AV3       0.156300
     22 C22          4.4340     0.5090    -0.1410 c3         1 AV3       0.158600
     23 C23          1.1730    -3.7580    -0.0030 c3         1 AV3       0.142900
     24 C24         10.2090    -0.4170     0.4700 c5         1 AV3      -0.079400
     25 C25         10.5340     0.7770    -0.4490 c5         1 AV3      -0.079400
     26 F01         -4.1650     0.2350    -1.6280 f          1 AV3      -0.161000
     27 N01         -8.2220     0.0900     0.6690 ne         1 AV3      -0.543100
     28 N02         -2.3900     1.5740     0.5880 nb         1 AV3      -0.265000
     29 N03         -0.2010     2.4550     0.3970 nb         1 AV3      -0.189000
     30 N04          8.2150     0.4770    -0.4340 n3         1 AV3      -0.713600
     31 O01         -2.7650    -0.6810     0.5270 os         1 AV3      -0.354400
     32 O02          3.4860    -0.5510    -0.1310 os         1 AV3      -0.321100
     33 O03          1.9530    -2.5790    -0.0710 os         1 AV3      -0.317100
     34 H1          -7.0690     1.5990    -1.7670 hc         1 AV3       0.091200
     35 H071        -7.2920    -0.0690    -2.2680 hc         1 AV3       0.091200
     36 H081        -0.6870    -2.0830     0.2310 ha         1 AV3       0.138000
     37 H111         2.3070     1.8820     0.1060 ha         1 AV3       0.142000
     38 H141        -1.8920     3.5740     0.6300 h5         1 AV3       0.049100
     39 H151        -6.6730    -0.7870     2.8300 ha         1 AV3       0.139000
     40 H161        -4.2050    -1.0630     2.6620 ha         1 AV3       0.133000
     41 H171         6.6790     1.6980    -1.0730 h1         1 AV3       0.029200
     42 H172         6.7950     1.5730     0.6790 h1         1 AV3       0.029200
     43 H182         5.8860    -0.6610    -1.2090 hc         1 AV3       0.065200
     44 H181         5.9750    -0.7980     0.5460 hc         1 AV3       0.065200
     45 H193       -10.0640     0.1910    -1.8840 hc         1 AV3       0.058367
     46 H192       -10.5560     0.7140    -0.2640 hc         1 AV3       0.058367
     47 H191        -9.8210     1.8570    -1.4040 hc         1 AV3       0.058367
     48 H202         9.0970     2.0720    -1.4940 h1         1 AV3       0.035700
     49 H212         8.2240    -1.3440     0.6410 h1         1 AV3       0.035700
     50 H211         8.4430     0.0950     1.6380 h1         1 AV3       0.035700
     51 H221         4.3580     1.0870     0.7870 h1         1 AV3       0.038700
     52 H222         4.2270     1.1920    -0.9740 h1         1 AV3       0.038700
     53 H231         0.6410    -3.8350     0.9490 h1         1 AV3       0.044033
     54 H233         0.4480    -3.8130    -0.8190 h1         1 AV3       0.044033
     55 H232         1.8650    -4.5910    -0.0900 h1         1 AV3       0.044033
     56 H241        10.7220    -0.3510     1.4290 hc         1 AV3       0.046950
     57 H242        10.5120    -1.3580     0.0120 hc         1 AV3       0.046950
     58 H252        10.8500     0.4290    -1.4330 hc         1 AV3       0.046950
     59 H251        11.3310     1.4090    -0.0570 hc         1 AV3       0.046950
     60 H201         9.1230     2.2630     0.2650 h1         1 AV3       0.035700
@<TRIPOS>BOND
     1     1     4 ar  
     2     1     5 ar  
     3     1     7 1   
     4     2     3 ar  
     5     2     6 ar  
     6     2     8 ar  
     7     3    28 ar  
     8     3    31 1   
     9     4    15 ar  
    10     4    27 1   
    11     5     9 ar  
    12     5    26 1   
    13     6    11 ar  
    14     6    29 ar  
    15     7    10 1   
    16     7    34 1   
    17     7    35 1   
    18     8    12 ar  
    19     8    36 1   
    20     9    16 ar  
    21     9    31 1   
    22    10    19 1   
    23    10    27 2   
    24    11    13 ar  
    25    11    37 1   
    26    12    13 ar  
    27    12    33 1   
    28    13    32 1   
    29    14    28 ar  
    30    14    29 ar  
    31    14    38 1   
    32    15    16 ar  
    33    15    39 1   
    34    16    40 1   
    35    17    18 1   
    36    17    30 1   
    37    17    41 1   
    38    17    42 1   
    39    18    22 1   
    40    18    43 1   
    41    18    44 1   
    42    19    45 1   
    43    19    46 1   
    44    19    47 1   
    45    20    25 1   
    46    20    30 1   
    47    20    48 1   
    48    20    60 1   
    49    21    24 1   
    50    21    30 1   
    51    21    49 1   
    52    21    50 1   
    53    22    32 1   
    54    22    51 1   
    55    22    52 1   
    56    23    33 1   
    57    23    53 1   
    58    23    54 1   
    59    23    55 1   
    60    24    25 1   
    61    24    56 1   
    62    24    57 1   
    63    25    58 1   
    64    25    59 1   
@<TRIPOS>SUBSTRUCTURE
     1 AV3         1 TEMP              0 ****  ****    0 ROOT
