@<TRIPOS>MOLECULE
AV4
   32    33     1     0     0
SMALL
No Charge or Current Charge


@<TRIPOS>ATOM
      1 C10         -4.2740    -0.5530    -0.8790 c          1 AV4       0.713600
      2 C11         -3.1930     1.5970    -0.0320 ca         1 AV4      -0.076000
      3 C12         -2.0780     2.3200     0.4190 ca         1 AV4      -0.153000
      4 C13         -0.8260     1.6970     0.5240 ca         1 AV4      -0.122000
      5 C14          1.8720     0.3700     0.0060 ca         1 AV4      -0.177000
      6 C2           3.1380    -0.2410     0.1050 ca         1 AV4       0.319000
      7 C4           2.0390    -2.3130     0.7910 ca         1 AV4      -0.082000
      8 C5           0.7870    -1.6900     0.6880 ca         1 AV4      -0.143000
      9 C7          -0.6600     0.3330     0.1810 cp         1 AV4      -0.092000
     10 C6           0.6770    -0.3350     0.2930 cp         1 AV4       0.040000
     11 C8          -1.8000    -0.3810    -0.2740 ca         1 AV4      -0.066000
     12 C            5.5430    -0.1900    -0.6840 c3         1 AV4       0.217600
     13 C1           4.3920     1.9550    -0.0100 c3         1 AV4       0.217600
     14 C3           3.2070    -1.5920     0.5010 ca         1 AV4      -0.204000
     15 C9          -3.0700     0.2340    -0.3860 ca         1 AV4      -0.140600
     16 O           -5.3500     0.0210    -0.9720 o          1 AV4      -0.720500
     17 O1          -4.1270    -1.7330    -1.1650 o          1 AV4      -0.720500
     18 H10         -4.1550     2.1010    -0.1050 ha         1 AV4       0.126000
     19 H11         -2.1860     3.3670     0.6910 ha         1 AV4       0.085000
     20 H12          0.0200     2.2740     0.8880 ha         1 AV4       0.084000
     21 H13          1.8040     1.4010    -0.3220 ha         1 AV4       0.113000
     22 H7           2.1050    -3.3540     1.1020 ha         1 AV4       0.097000
     23 H8          -0.1060    -2.2600     0.9310 ha         1 AV4       0.127000
     24 H9          -1.6880    -1.4250    -0.5560 ha         1 AV4       0.131000
     25 H            6.1320    -0.5820     0.1560 h1         1 AV4       0.026867
     26 H1           5.2800    -1.0210    -1.3520 h1         1 AV4       0.026867
     27 H2           6.1710     0.5080    -1.2550 h1         1 AV4       0.026867
     28 H4           3.8050     2.2640     0.8650 h1         1 AV4       0.026867
     29 H3           5.4290     2.2780     0.1560 h1         1 AV4       0.026867
     30 H5           4.0030     2.4700    -0.8980 h1         1 AV4       0.026867
     31 H6           4.1670    -2.0900     0.5980 ha         1 AV4       0.096000
     32 N            4.3210     0.4860    -0.1900 nh         1 AV4      -0.833400
@<TRIPOS>BOND
     1     1    15 1   
     2     1    16 1   
     3     1    17 1   
     4     2     3 ar  
     5     2    15 ar  
     6     2    18 1   
     7     3     4 ar  
     8     3    19 1   
     9     4     9 ar  
    10     4    20 1   
    11     5     6 ar  
    12     5    10 ar  
    13     5    21 1   
    14     6    14 ar  
    15     6    32 1   
    16     7     8 ar  
    17     7    14 ar  
    18     7    22 1   
    19     8    10 ar  
    20     8    23 1   
    21     9    10 1   
    22     9    11 ar  
    23    11    15 ar  
    24    11    24 1   
    25    12    25 1   
    26    12    26 1   
    27    12    27 1   
    28    12    32 1   
    29    13    28 1   
    30    13    29 1   
    31    13    30 1   
    32    13    32 1   
    33    14    31 1   
@<TRIPOS>SUBSTRUCTURE
     1 AV4         1 TEMP              0 ****  ****    0 ROOT
