@<TRIPOS>MOLECULE
AV4
   32    33     1     0     0
SMALL
bcc


@<TRIPOS>ATOM
      1 C10         -4.2170    -0.5290    -0.8540 c          1 AV4       0.924200
      2 C11         -3.1440     1.5650     0.0970 ca         1 AV4      -0.094000
      3 C12         -2.0410     2.2630     0.5680 ca         1 AV4      -0.171000
      4 C13         -0.7960     1.6520     0.6230 ca         1 AV4      -0.140000
      5 C14          1.8280     0.3710    -0.0770 ca         1 AV4      -0.195000
      6 C2           3.1060    -0.2130    -0.0290 ca         1 AV4       0.180600
      7 C4           2.0360    -2.2660     0.6920 ca         1 AV4      -0.100000
      8 C5           0.7850    -1.6730     0.6520 ca         1 AV4      -0.161000
      9 C7          -0.6400     0.3290     0.2060 cp         1 AV4      -0.092000
     10 C6           0.6800    -0.3350     0.2650 cp         1 AV4       0.040000
     11 C8          -1.7610    -0.3570    -0.2620 ca         1 AV4      -0.084000
     12 C            5.4990    -0.1860    -0.4880 c3         1 AV4       0.217600
     13 C1           4.3220     1.9260    -0.2490 c3         1 AV4       0.217600
     14 C3           3.1840    -1.5600     0.3650 ca         1 AV4      -0.222000
     15 C9          -3.0140     0.2440    -0.3250 ca         1 AV4      -0.140600
     16 O           -5.3020     0.0810    -0.8840 o          1 AV4      -0.825800
     17 O1          -4.0110    -1.7060    -1.2100 o          1 AV4      -0.825800
     18 H10         -4.1120     2.0450     0.0590 ha         1 AV4       0.144000
     19 H11         -2.1510     3.2860     0.9030 ha         1 AV4       0.103000
     20 H12          0.0540     2.2000     1.0120 ha         1 AV4       0.102000
     21 H13          1.7150     1.3870    -0.4320 ha         1 AV4       0.131000
     22 H7           2.1310    -3.2990     1.0030 ha         1 AV4       0.115000
     23 H8          -0.0950    -2.2330     0.9420 ha         1 AV4       0.145000
     24 H9          -1.6570    -1.3790    -0.6040 ha         1 AV4       0.149000
     25 H            5.9260    -0.4490     0.4880 h1         1 AV4       0.026867
     26 H1           5.4190    -1.0980    -1.0810 h1         1 AV4       0.026867
     27 H2           6.2080     0.4670    -0.9960 h1         1 AV4       0.026867
     28 H4           3.3820     2.3600     0.0770 h1         1 AV4       0.026867
     29 H3           5.0740     2.1920     0.5000 h1         1 AV4       0.026867
     30 H5           4.6040     2.4050    -1.1890 h1         1 AV4       0.026867
     31 H6           4.1380    -2.0620     0.4390 ha         1 AV4       0.114000
     32 N            4.2300     0.4900    -0.3930 nh         1 AV4      -0.695000
@<TRIPOS>BOND
     1     1    15 1   
     2     1    16 1   
     3     1    17 1   
     4     2     3 ar  
     5     2    15 ar  
     6     2    18 1   
     7     3     4 ar  
     8     3    19 1   
     9     4     9 ar  
    10     4    20 1   
    11     5     6 ar  
    12     5    10 ar  
    13     5    21 1   
    14     6    14 ar  
    15     6    32 1   
    16     7     8 ar  
    17     7    14 ar  
    18     7    22 1   
    19     8    10 ar  
    20     8    23 1   
    21     9    10 1   
    22     9    11 ar  
    23    11    15 ar  
    24    11    24 1   
    25    12    25 1   
    26    12    26 1   
    27    12    27 1   
    28    12    32 1   
    29    13    28 1   
    30    13    29 1   
    31    13    30 1   
    32    13    32 1   
    33    14    31 1   
@<TRIPOS>SUBSTRUCTURE
     1 AV4         1 TEMP              0 ****  ****    0 ROOT
