@<TRIPOS>MOLECULE
AV5
   40    43     1     0     0
SMALL
bcc


@<TRIPOS>ATOM
      1 CL1         -6.4910     1.3190     0.1330 cl         1 AV5      -0.139400
      2 C16         -4.8810     0.6800     0.1010 ca         1 AV5       0.030400
      3 C14         -3.8740     1.3330     0.7940 ca         1 AV5      -0.141000
      4 C12         -2.5840     0.8280     0.7540 ca         1 AV5      -0.079500
      5 C15         -4.6210    -0.4770    -0.6160 ca         1 AV5      -0.141000
      6 C13         -3.3310    -0.9810    -0.6320 ca         1 AV5      -0.079500
      7 C11         -2.2950    -0.3350     0.0400 cp         1 AV5      -0.115500
      8 C10         -0.9460    -0.9440     0.0180 cp         1 AV5       0.487800
      9 N9          -0.8910    -2.2310     0.1540 nb         1 AV5      -0.664000
     10 C2           0.3030    -2.8780     0.1360 ca         1 AV5       0.360600
     11 C4           0.2690    -4.2780     0.2910 ca         1 AV5      -0.164300
     12 C6           1.4290    -5.0060     0.2920 ca         1 AV5      -0.145000
     13 C5           2.6590    -4.3480     0.1410 ca         1 AV5      -0.134000
     14 C3           2.7200    -2.9840    -0.0110 ca         1 AV5      -0.102000
     15 C1           1.5400    -2.2060    -0.0210 ca         1 AV5      -0.065300
     16 C8           0.2410    -0.1530    -0.1890 ca         1 AV5       0.119100
     17 N19          0.0860     1.1790    -0.3880 nc         1 AV5      -0.693100
     18 C20          1.1300     1.9030    -0.6250 cd         1 AV5       0.550900
     19 C22          0.9310     3.3650    -0.8420 c3         1 AV5      -0.137400
     20 C7           1.4740    -0.7860    -0.2000 ca         1 AV5      -0.189600
     21 C17          2.6510     0.0530    -0.4010 c          1 AV5       0.717100
     22 O21          3.8050    -0.3360    -0.3480 o          1 AV5      -0.609500
     23 N18          2.3850     1.3840    -0.6940 n          1 AV5      -0.320300
     24 C23          3.5440     2.2430    -0.8770 c3         1 AV5      -0.086000
     25 C24          4.1220     2.7540     0.4650 c          1 AV5       0.931600
     26 O26          5.2080     3.3490     0.3610 o          1 AV5      -0.814300
     27 O25          3.4480     2.5440     1.4850 o          1 AV5      -0.814300
     28 H1          -4.0870     2.2290     1.3610 ha         1 AV5       0.139500
     29 H2          -1.8070     1.3430     1.2990 ha         1 AV5       0.151500
     30 H3          -5.4100    -0.9810    -1.1580 ha         1 AV5       0.139500
     31 H4          -3.1270    -1.8870    -1.1880 ha         1 AV5       0.151500
     32 H5          -0.6950    -4.7550     0.4090 ha         1 AV5       0.136000
     33 H6           1.4000    -6.0810     0.4090 ha         1 AV5       0.121000
     34 H7           3.5760    -4.9220     0.1440 ha         1 AV5       0.124000
     35 H8           3.6790    -2.5100    -0.1270 ha         1 AV5       0.171000
     36 H9          -0.1180     3.5990    -0.6840 hc         1 AV5       0.066367
     37 H10          1.5320     3.9570    -0.1520 hc         1 AV5       0.066367
     38 H11          1.2010     3.6630    -1.8560 hc         1 AV5       0.066367
     39 H12          4.3020     1.6920    -1.4270 h1         1 AV5       0.052200
     40 H13          3.2650     3.0900    -1.5030 h1         1 AV5       0.052200
@<TRIPOS>BOND
     1     1     2 1   
     2     2     3 ar  
     3     2     5 ar  
     4     3     4 ar  
     5     3    28 1   
     6     4     7 ar  
     7     4    29 1   
     8     5     6 ar  
     9     5    30 1   
    10     6     7 ar  
    11     6    31 1   
    12     7     8 1   
    13     8     9 ar  
    14     8    16 ar  
    15     9    10 ar  
    16    10    11 ar  
    17    10    15 ar  
    18    11    12 ar  
    19    11    32 1   
    20    12    13 ar  
    21    12    33 1   
    22    13    14 ar  
    23    13    34 1   
    24    14    15 ar  
    25    14    35 1   
    26    15    20 ar  
    27    16    17 1   
    28    16    20 ar  
    29    17    18 2   
    30    18    19 1   
    31    18    23 1   
    32    19    36 1   
    33    19    37 1   
    34    19    38 1   
    35    20    21 1   
    36    21    22 2   
    37    21    23 1   
    38    23    24 1   
    39    24    25 1   
    40    24    39 1   
    41    24    40 1   
    42    25    26 1   
    43    25    27 1   
@<TRIPOS>SUBSTRUCTURE
     1 AV5         1 TEMP              0 ****  ****    0 ROOT
