@<TRIPOS>MOLECULE
AV5
   40    43     1     0     0
SMALL
No Charge or Current Charge


@<TRIPOS>ATOM
      1 Cl1         -6.6470     1.2820     0.1890 cl         1 AV5      -0.231000
      2 C16         -5.0090     0.6440     0.1410 ca         1 AV5       0.122000
      3 C14         -3.9780     1.3080     0.8220 ca         1 AV5      -0.123000
      4 C12         -2.6680     0.7990     0.7850 ca         1 AV5      -0.061500
      5 C15         -4.7350    -0.5310    -0.5730 ca         1 AV5      -0.123000
      6 C13         -3.4260    -1.0420    -0.6110 ca         1 AV5      -0.061500
      7 C11         -2.3590    -0.3830     0.0590 cp         1 AV5      -0.115500
      8 C10         -0.9610    -0.9450     0.0220 cp         1 AV5       0.422500
      9 N9          -0.9090    -2.2800     0.2000 nb         1 AV5      -0.664000
     10 C2           0.2720    -2.9120     0.1590 ca         1 AV5       0.230000
     11 C4           0.2670    -4.3100     0.3250 ca         1 AV5      -0.081000
     12 C6           1.4520    -5.0510     0.2740 ca         1 AV5      -0.127000
     13 C5           2.6600    -4.3920     0.0430 ca         1 AV5      -0.116000
     14 C3           2.6860    -2.9980    -0.1210 ca         1 AV5      -0.084000
     15 C1           1.4980    -2.2150    -0.0470 ca         1 AV5       0.000000
     16 C8           0.2010    -0.1250    -0.2070 ca         1 AV5       0.184400
     17 N19          0.0770     1.2610    -0.4610 nc         1 AV5      -0.693100
     18 C20          1.2000     1.9390    -0.6780 cd         1 AV5       0.550900
     19 C22          0.9480     3.3980    -0.9810 c3         1 AV5      -0.137400
     20 C7           1.4630    -0.7810    -0.1950 ca         1 AV5      -0.189600
     21 C17          2.6900     0.0850    -0.3180 c          1 AV5       0.574600
     22 O21          3.8250    -0.3230    -0.1120 o          1 AV5      -0.534000
     23 N18          2.4850     1.4270    -0.6320 n          1 AV5      -0.253300
     24 C23          3.6900     2.3100    -0.8040 c3         1 AV5      -0.086000
     25 C24          4.2820     2.8510     0.5150 c          1 AV5       0.721000
     26 O26          5.4900     3.0340     0.5670 o          1 AV5      -0.709000
     27 O25          3.5240     3.0690     1.4490 o          1 AV5      -0.709000
     28 H1          -4.1940     2.2140     1.3820 ha         1 AV5       0.121500
     29 H2          -1.8870     1.3200     1.3340 ha         1 AV5       0.133500
     30 H3          -5.5360    -1.0470    -1.0970 ha         1 AV5       0.121500
     31 H4          -3.2310    -1.9550    -1.1710 ha         1 AV5       0.133500
     32 H5          -0.6760    -4.8250     0.4900 ha         1 AV5       0.118000
     33 H6           1.4300    -6.1320     0.4010 ha         1 AV5       0.103000
     34 H7           3.5850    -4.9620    -0.0170 ha         1 AV5       0.106000
     35 H8           3.6580    -2.5740    -0.3290 ha         1 AV5       0.153000
     36 H9          -0.1140     3.6600    -0.9050 hc         1 AV5       0.066367
     37 H10          1.4880     4.0460    -0.2820 hc         1 AV5       0.066367
     38 H11          1.2690     3.6450    -1.9990 hc         1 AV5       0.066367
     39 H12          4.4770     1.7500    -1.3240 h1         1 AV5       0.052200
     40 H13          3.4560     3.1700    -1.4420 h1         1 AV5       0.052200
@<TRIPOS>BOND
     1     1     2 1   
     2     2     3 ar  
     3     2     5 ar  
     4     3     4 ar  
     5     3    28 1   
     6     4     7 ar  
     7     4    29 1   
     8     5     6 ar  
     9     5    30 1   
    10     6     7 ar  
    11     6    31 1   
    12     7     8 1   
    13     8     9 ar  
    14     8    16 ar  
    15     9    10 ar  
    16    10    11 ar  
    17    10    15 ar  
    18    11    12 ar  
    19    11    32 1   
    20    12    13 ar  
    21    12    33 1   
    22    13    14 ar  
    23    13    34 1   
    24    14    15 ar  
    25    14    35 1   
    26    15    20 ar  
    27    16    17 1   
    28    16    20 ar  
    29    17    18 2   
    30    18    19 1   
    31    18    23 1   
    32    19    36 1   
    33    19    37 1   
    34    19    38 1   
    35    20    21 1   
    36    21    22 2   
    37    21    23 1   
    38    23    24 1   
    39    24    25 1   
    40    24    39 1   
    41    24    40 1   
    42    25    26 1   
    43    25    27 1   
@<TRIPOS>SUBSTRUCTURE
     1 AV5         1 TEMP              0 ****  ****    0 ROOT
