@<TRIPOS>MOLECULE
AV6
   35    38     1     0     0
SMALL
No Charge or Current Charge


@<TRIPOS>ATOM
      1 C1          -2.1040    -0.1690    -0.0710 ca         1 AV6      -0.106000
      2 C2          -1.4870    -1.0210    -0.9900 ca         1 AV6       0.319500
      3 C3          -1.7940    -2.3900    -0.9870 ca         1 AV6      -0.201000
      4 C4          -2.7210    -2.9010    -0.0590 ca         1 AV6      -0.058000
      5 C5          -3.3390    -2.0390     0.8660 ca         1 AV6      -0.150500
      6 C6          -3.0310    -0.6660     0.8630 ca         1 AV6       0.029000
      7 C7          -3.6300     0.2180     1.7790 ca         1 AV6      -0.150500
      8 C8          -3.2980     1.5860     1.7560 ca         1 AV6      -0.058000
      9 C9          -2.3680     2.0690     0.8160 ca         1 AV6      -0.201000
     10 C10         -1.7710     1.1870    -0.0970 ca         1 AV6       0.319500
     11 N11         -0.8460     1.6460    -1.0330 nu         1 AV6      -0.935200
     12 C12          0.0770     0.7950    -1.7620 c6         1 AV6       0.548000
     13 N13         -0.5700    -0.4970    -1.8990 nu         1 AV6      -0.935200
     14 C15          1.4210     0.6720    -1.0290 ca         1 AV6      -0.149300
     15 C16          1.5030     0.1520     0.2840 ca         1 AV6      -0.104000
     16 C17          2.7450     0.0510     0.9300 ca         1 AV6       0.126100
     17 C18          3.9220     0.4660     0.2760 ca         1 AV6       0.050100
     18 C19          3.8500     0.9830    -1.0270 ca         1 AV6      -0.156000
     19 C20          2.6060     1.0850    -1.6760 ca         1 AV6      -0.101000
     20 O21          5.1330     0.3650     0.9110 oh         1 AV6      -0.555100
     21 O22          2.8230    -0.4510     2.1970 oh         1 AV6      -0.533100
     22 H3          -1.3180    -3.0590    -1.6990 ha         1 AV6       0.110000
     23 H4          -2.9590    -3.9620    -0.0550 ha         1 AV6       0.107500
     24 H5          -4.0530    -2.4390     1.5820 ha         1 AV6       0.114000
     25 H7          -4.3480    -0.1510     2.5080 ha         1 AV6       0.114000
     26 H8          -3.7620     2.2690     2.4640 ha         1 AV6       0.107500
     27 H9          -2.1140     3.1250     0.8020 ha         1 AV6       0.110000
     28 H16          0.6060    -0.1720     0.8030 ha         1 AV6       0.131000
     29 H19          4.7510     1.3080    -1.5440 ha         1 AV6       0.115000
     30 H20          2.5630     1.4880    -2.6860 ha         1 AV6       0.109000
     31 HO21         5.8360     0.6980     0.3100 ho         1 AV6       0.476000
     32 HO22         3.7770    -0.4250     2.4370 ho         1 AV6       0.483000
     33 HN11        -0.5890     2.6270    -0.9570 hn         1 AV6       0.473500
     34 HN13        -0.1000    -1.1740    -2.4940 hn         1 AV6       0.473500
     35 H12          0.2750     1.2250    -2.7600 h2         1 AV6       0.078700
@<TRIPOS>BOND
     1     1     2 ar  
     2     1     6 ar  
     3     1    10 ar  
     4     2     3 ar  
     5     2    13 1   
     6     3     4 ar  
     7     3    22 1   
     8     4     5 ar  
     9     4    23 1   
    10     5     6 ar  
    11     5    24 1   
    12     6     7 ar  
    13     7     8 ar  
    14     7    25 1   
    15     8     9 ar  
    16     8    26 1   
    17     9    10 ar  
    18     9    27 1   
    19    10    11 1   
    20    11    12 1   
    21    11    33 1   
    22    12    13 1   
    23    12    14 1   
    24    12    35 1   
    25    13    34 1   
    26    14    15 ar  
    27    14    19 ar  
    28    15    16 ar  
    29    15    28 1   
    30    16    17 ar  
    31    16    21 1   
    32    17    18 ar  
    33    17    20 1   
    34    18    19 ar  
    35    18    29 1   
    36    19    30 1   
    37    20    31 1   
    38    21    32 1   
@<TRIPOS>SUBSTRUCTURE
     1 AV6         1 TEMP              0 ****  ****    0 ROOT
