@<TRIPOS>MOLECULE
AV6
   35    38     1     0     0
SMALL
bcc


@<TRIPOS>ATOM
      1 C1          -1.9070    -0.0640    -0.1370 ca         1 AV6      -0.106000
      2 C2          -1.4250    -1.1300    -0.9460 ca         1 AV6       0.181100
      3 C3          -1.7400    -2.4320    -0.6150 ca         1 AV6      -0.219000
      4 C4          -2.5230    -2.6940     0.5220 ca         1 AV6      -0.076000
      5 C5          -2.9900    -1.6850     1.3240 ca         1 AV6      -0.168500
      6 C6          -2.7010    -0.3380     1.0030 ca         1 AV6       0.029000
      7 C7          -3.1960     0.7490     1.7630 ca         1 AV6      -0.168500
      8 C8          -2.9220     2.0360     1.3790 ca         1 AV6      -0.076000
      9 C9          -2.1450     2.3150     0.2420 ca         1 AV6      -0.219000
     10 C10         -1.6390     1.2800    -0.5160 ca         1 AV6       0.181100
     11 N11         -0.9200     1.4780    -1.6730 nu         1 AV6      -0.741600
     12 C12          0.0360     0.4480    -2.0210 c6         1 AV6       0.548000
     13 N13         -0.6880    -0.7970    -2.0600 nu         1 AV6      -0.741600
     14 C15          1.2480     0.4340    -1.0860 ca         1 AV6      -0.149300
     15 C16          1.7520    -0.7500    -0.5580 ca         1 AV6      -0.122000
     16 C17          2.8730    -0.7560     0.2590 ca         1 AV6       0.126100
     17 C18          3.5170     0.4490     0.5580 ca         1 AV6       0.050100
     18 C19          3.0240     1.6310     0.0280 ca         1 AV6      -0.174000
     19 C20          1.9000     1.6240    -0.7860 ca         1 AV6      -0.119000
     20 O21          4.6020     0.3690     1.3630 oh         1 AV6      -0.516100
     21 O22          3.3140    -1.9350     0.7480 oh         1 AV6      -0.494100
     22 H3          -1.3770    -3.2500    -1.2250 ha         1 AV6       0.128000
     23 H4          -2.7500    -3.7240     0.7690 ha         1 AV6       0.125500
     24 H5          -3.5880    -1.9060     2.1990 ha         1 AV6       0.132000
     25 H7          -3.7990     0.5500     2.6410 ha         1 AV6       0.132000
     26 H8          -3.3050     2.8630     1.9640 ha         1 AV6       0.125500
     27 H9          -1.9430     3.3420    -0.0380 ha         1 AV6       0.128000
     28 H16          1.2800    -1.7020    -0.7670 ha         1 AV6       0.149000
     29 H19          3.5210     2.5680     0.2530 ha         1 AV6       0.133000
     30 H20          1.5450     2.5680    -1.1810 ha         1 AV6       0.127000
     31 HO21         4.9980     1.2380     1.4920 ho         1 AV6       0.437000
     32 HO22         4.1020    -1.8030     1.2880 ho         1 AV6       0.444000
     33 HN11        -0.6160     2.4230    -1.8460 hn         1 AV6       0.418300
     34 HN13        -0.2360    -1.5550    -2.5450 hn         1 AV6       0.418300
     35 H12          0.3840     0.6580    -3.0340 h2         1 AV6       0.078700
@<TRIPOS>BOND
     1     1     2 ar  
     2     1     6 ar  
     3     1    10 ar  
     4     2     3 ar  
     5     2    13 1   
     6     3     4 ar  
     7     3    22 1   
     8     4     5 ar  
     9     4    23 1   
    10     5     6 ar  
    11     5    24 1   
    12     6     7 ar  
    13     7     8 ar  
    14     7    25 1   
    15     8     9 ar  
    16     8    26 1   
    17     9    10 ar  
    18     9    27 1   
    19    10    11 1   
    20    11    12 1   
    21    11    33 1   
    22    12    13 1   
    23    12    14 1   
    24    12    35 1   
    25    13    34 1   
    26    14    15 ar  
    27    14    19 ar  
    28    15    16 ar  
    29    15    28 1   
    30    16    17 ar  
    31    16    21 1   
    32    17    18 ar  
    33    17    20 1   
    34    18    19 ar  
    35    18    29 1   
    36    19    30 1   
    37    20    31 1   
    38    21    32 1   
@<TRIPOS>SUBSTRUCTURE
     1 AV6         1 TEMP              0 ****  ****    0 ROOT
