@<TRIPOS>MOLECULE
AV7
   31    32     1     0     0
SMALL
No Charge or Current Charge


@<TRIPOS>ATOM
      1 C10         -1.5610     2.3270     0.7610 ca         1 AV7      -0.095000
      2 C13          2.4620    -2.4000     0.5720 ca         1 AV7      -0.152000
      3 C11         -0.3200     1.6760     0.6810 ca         1 AV7      -0.122000
      4 C12          1.2230    -1.7470     0.6520 ca         1 AV7      -0.122000
      5 N           -3.8550    -0.5280    -0.1230 ns         1 AV7      -0.142000
      6 O            4.5930     1.5430    -1.1700 o          1 AV7      -0.719000
      7 C1           3.4970    -0.3690    -0.3150 ca         1 AV7      -0.139600
      8 C14          3.5920    -1.7190     0.0930 ca         1 AV7      -0.074000
      9 C2           2.2390     0.2760    -0.2280 ca         1 AV7      -0.065000
     10 C3           1.0860    -0.3950     0.2540 cp         1 AV7      -0.094000
     11 C4          -0.2370     0.3040     0.3400 cp         1 AV7       0.032000
     12 C5          -1.4490    -0.3860     0.0830 ca         1 AV7      -0.168000
     13 C6          -2.7000     0.2550     0.1580 ca         1 AV7      -0.037000
     14 C7          -5.2120    -0.2270    -0.1400 c          1 AV7       0.605100
     15 C8          -6.1030    -1.4120    -0.5070 c3         1 AV7      -0.182100
     16 C9          -2.7470     1.6230     0.5010 ca         1 AV7      -0.147000
     17 O1          -5.6890     0.8740     0.1110 o          1 AV7      -0.596100
     18 O2           5.7800    -0.2270    -0.9100 o          1 AV7      -0.719000
     19 H8          -1.6030     3.3810     1.0290 ha         1 AV7       0.105000
     20 H11          2.5490    -3.4380     0.8860 ha         1 AV7       0.086000
     21 H9           0.5850     2.2370     0.9010 ha         1 AV7       0.130000
     22 H10          0.3660    -2.2920     1.0380 ha         1 AV7       0.083000
     23 H3          -3.6460    -1.4900    -0.3560 hn         1 AV7       0.145000
     24 H12          4.5430    -2.2450     0.0400 ha         1 AV7       0.128000
     25 H1           2.1490     1.3100    -0.5520 ha         1 AV7       0.132000
     26 H2          -1.4110    -1.4360    -0.1940 ha         1 AV7       0.107000
     27 H5          -5.8920    -2.2430     0.1770 hc         1 AV7       0.057033
     28 H4          -7.1680    -1.1550    -0.5140 hc         1 AV7       0.057033
     29 H6          -5.7780    -1.8180    -1.4710 hc         1 AV7       0.057033
     30 H7          -3.6880     2.1590     0.5720 ha         1 AV7       0.135000
     31 C            4.7160     0.3720    -0.8380 c          1 AV7       0.713600
@<TRIPOS>BOND
     1     1     3 ar  
     2     1    16 ar  
     3     1    19 1   
     4     2     4 ar  
     5     2     8 ar  
     6     2    20 1   
     7     3    11 ar  
     8     3    21 1   
     9     4    10 ar  
    10     4    22 1   
    11     5    13 1   
    12     5    14 1   
    13     5    23 1   
    14     6    31 1   
    15     7     8 ar  
    16     7     9 ar  
    17     7    31 1   
    18     8    24 1   
    19     9    10 ar  
    20     9    25 1   
    21    10    11 1   
    22    11    12 ar  
    23    12    13 ar  
    24    12    26 1   
    25    13    16 ar  
    26    14    15 1   
    27    14    17 2   
    28    15    27 1   
    29    15    28 1   
    30    15    29 1   
    31    16    30 1   
    32    18    31 1   
@<TRIPOS>SUBSTRUCTURE
     1 AV7         1 TEMP              0 ****  ****    0 ROOT
