@<TRIPOS>MOLECULE
AV7
   31    32     1     0     0
SMALL
bcc


@<TRIPOS>ATOM
      1 C10         -1.5520     2.2700     0.7380 ca         1 AV7      -0.113000
      2 C13          2.4340    -2.3490     0.6730 ca         1 AV7      -0.170000
      3 C11         -0.3180     1.6460     0.6760 ca         1 AV7      -0.140000
      4 C12          1.2030    -1.7140     0.7400 ca         1 AV7      -0.140000
      5 N           -3.7800    -0.5740    -0.1160 ns         1 AV7      -0.468100
      6 O            4.4330     1.5300    -1.2630 o          1 AV7      -0.824300
      7 C1           3.4220    -0.3790    -0.3080 ca         1 AV7      -0.139600
      8 C14          3.5380    -1.6880     0.1520 ca         1 AV7      -0.092000
      9 C2           2.1830     0.2470    -0.2330 ca         1 AV7      -0.083000
     10 C3           1.0620    -0.4020     0.2850 cp         1 AV7      -0.094000
     11 C4          -0.2420     0.2900     0.3540 cp         1 AV7       0.032000
     12 C5          -1.4210    -0.4010     0.0970 ca         1 AV7      -0.186000
     13 C6          -2.6670     0.2260     0.1600 ca         1 AV7       0.055600
     14 C7          -5.0890    -0.2280    -0.2220 c          1 AV7       0.672100
     15 C8          -6.0090    -1.3750    -0.5560 c3         1 AV7      -0.182100
     16 C9          -2.7310     1.5810     0.4860 ca         1 AV7      -0.165000
     17 O1          -5.5080     0.9060    -0.0660 o          1 AV7      -0.596100
     18 O2           5.6960    -0.2770    -0.9370 o          1 AV7      -0.824300
     19 H8          -1.6070     3.3200     0.9970 ha         1 AV7       0.123000
     20 H11          2.5340    -3.3640     1.0380 ha         1 AV7       0.104000
     21 H9           0.5820     2.2050     0.8990 ha         1 AV7       0.148000
     22 H10          0.3550    -2.2350     1.1680 ha         1 AV7       0.101000
     23 H3          -3.5680    -1.5460    -0.2850 hn         1 AV7       0.311500
     24 H12          4.4960    -2.1880     0.1050 ha         1 AV7       0.146000
     25 H1           2.0900     1.2600    -0.6050 ha         1 AV7       0.150000
     26 H2          -1.3730    -1.4490    -0.1770 ha         1 AV7       0.125000
     27 H5          -5.5050    -2.3360    -0.6370 hc         1 AV7       0.057033
     28 H4          -6.7800    -1.4530     0.2090 hc         1 AV7       0.057033
     29 H6          -6.5090    -1.1690    -1.5020 hc         1 AV7       0.057033
     30 H7          -3.6740     2.0980     0.5500 ha         1 AV7       0.153000
     31 C            4.6250     0.3570    -0.8890 c          1 AV7       0.924200
@<TRIPOS>BOND
     1     1     3 ar  
     2     1    16 ar  
     3     1    19 1   
     4     2     4 ar  
     5     2     8 ar  
     6     2    20 1   
     7     3    11 ar  
     8     3    21 1   
     9     4    10 ar  
    10     4    22 1   
    11     5    13 1   
    12     5    14 1   
    13     5    23 1   
    14     6    31 1   
    15     7     8 ar  
    16     7     9 ar  
    17     7    31 1   
    18     8    24 1   
    19     9    10 ar  
    20     9    25 1   
    21    10    11 1   
    22    11    12 ar  
    23    12    13 ar  
    24    12    26 1   
    25    13    16 ar  
    26    14    15 1   
    27    14    17 2   
    28    15    27 1   
    29    15    28 1   
    30    15    29 1   
    31    16    30 1   
    32    18    31 1   
@<TRIPOS>SUBSTRUCTURE
     1 AV7         1 TEMP              0 ****  ****    0 ROOT
