@<TRIPOS>MOLECULE
AV8
   50    53     1     0     0
SMALL
No Charge or Current Charge


@<TRIPOS>ATOM
      1 N1           2.3570    -1.0420     7.0000 n8         1 AV8      -0.998200
      2 C4           5.7020     3.2270     1.5060 ca         1 AV8      -0.173000
      3 C5           4.6510     2.2870     1.6400 ca         1 AV8       0.067000
      4 C6           4.5790     1.4400     2.7800 ca         1 AV8      -0.118300
      5 C7           5.7160     1.4630     3.8220 c3         1 AV8      -0.042800
      6 C8           3.4660     0.5710     2.9450 ca         1 AV8       0.014700
      7 C10          1.8800    -0.7460     4.5450 c6         1 AV8      -0.034700
      8 C13          2.5820    -3.5640     4.1650 ce         1 AV8      -0.495400
      9 C15          1.9390    -2.8170     3.0230 c          1 AV8       0.609300
     10 C17          1.3590    -0.5420     2.0550 c          1 AV8       0.604700
     11 C20          3.6640     2.2110     0.6240 ca         1 AV8      -0.173000
     12 C21          3.7800     3.0680    -0.5120 ca         1 AV8       0.206100
     13 C11          1.8270    -1.7060     5.7660 c6         1 AV8       0.191700
     14 C12          2.5150    -3.0430     5.4150 c2         1 AV8       0.264900
     15 C14          3.3090    -4.8470     3.9420 c          1 AV8       0.645300
     16 C16          1.2490    -1.4430     3.3160 c6         1 AV8       0.008000
     17 C18          2.4930     0.4620     1.9240 ca         1 AV8      -0.317600
     18 C19          2.6030     1.2780     0.7730 ca         1 AV8       0.278100
     19 C2           4.8420     3.9870    -0.6300 ca         1 AV8      -0.149300
     20 C3           5.7970     4.0630     0.3890 ca         1 AV8      -0.032000
     21 C9           3.3230    -0.2610     4.2310 c6         1 AV8      -0.044100
     22 N2           3.6050    -5.2140     2.6900 nt         1 AV8      -0.554000
     23 O1           3.0540    -3.6640     6.4750 oh         1 AV8      -0.569100
     24 O2           3.7050    -5.5320     4.8690 o          1 AV8      -0.678100
     25 O3           1.8790    -3.3010     1.9000 o          1 AV8      -0.568100
     26 O4          -0.1700    -1.6770     3.6020 oh         1 AV8      -0.643000
     27 O5           0.5280    -0.6690     1.1570 o          1 AV8      -0.582100
     28 O6           1.6550     1.1620    -0.2040 oh         1 AV8      -0.589100
     29 O7           2.8620     3.0270    -1.5190 oh         1 AV8      -0.534100
     30 H14          2.3330    -1.7420     7.7520 hn         1 AV8       0.415500
     31 H21          3.3650    -0.8970     6.8780 hn         1 AV8       0.415500
     32 H5           6.4620     3.3480     2.2700 ha         1 AV8       0.121000
     33 H7           5.6380     2.3430     4.4720 hc         1 AV8       0.042700
     34 H8           5.7510     0.5770     4.4630 hc         1 AV8       0.042700
     35 H6           6.7000     1.4810     3.3410 hc         1 AV8       0.042700
     36 H11          1.2760     0.1410     4.7830 hc         1 AV8       0.093700
     37 H2           4.0870     5.5580    -1.9350 hc         1 AV8       0.043033
     38 H3           5.8480     5.5540    -1.7800 hc         1 AV8       0.043033
     39 H1           5.0500     4.3270    -2.7710 hc         1 AV8       0.043033
     40 H12          0.7690    -1.9390     5.9680 h1         1 AV8       0.109700
     41 H4           6.6190     4.7730     0.3210 ha         1 AV8       0.114000
     42 H10          4.0180    -1.1100     4.1760 hc         1 AV8       0.066200
     43 H9           3.6460     0.3490     5.0840 hc         1 AV8       0.066200
     44 H16          4.1070    -6.0720     2.5310 hn         1 AV8       0.342000
     45 H15          3.2490    -4.6640     1.9210 hn         1 AV8       0.342000
     46 H17          3.4140    -4.5110     6.0860 ho         1 AV8       0.568000
     47 H18         -0.6210    -1.7910     2.7300 ho         1 AV8       0.479000
     48 H19          1.0350     0.4450     0.1060 ho         1 AV8       0.544000
     49 H20          2.2170     2.3260    -1.2460 ho         1 AV8       0.500000
     50 C1           4.9650     4.9070    -1.8440 c3         1 AV8      -0.027800
@<TRIPOS>BOND
     1     1    13 1   
     2     1    30 1   
     3     1    31 1   
     4     2     3 ar  
     5     2    20 ar  
     6     2    32 1   
     7     3     4 ar  
     8     3    11 ar  
     9     4     5 1   
    10     4     6 ar  
    11     5    33 1   
    12     5    34 1   
    13     5    35 1   
    14     6    17 ar  
    15     6    21 1   
    16     7    13 1   
    17     7    16 1   
    18     7    21 1   
    19     7    36 1   
    20     8     9 1   
    21     8    14 2   
    22     8    15 1   
    23     9    16 1   
    24     9    25 2   
    25    10    16 1   
    26    10    17 1   
    27    10    27 2   
    28    11    12 ar  
    29    11    18 ar  
    30    12    19 ar  
    31    12    29 1   
    32    13    14 1   
    33    13    40 1   
    34    14    23 1   
    35    15    22 1   
    36    15    24 2   
    37    16    26 1   
    38    17    18 ar  
    39    18    28 1   
    40    19    20 ar  
    41    19    50 1   
    42    20    41 1   
    43    21    42 1   
    44    21    43 1   
    45    22    44 1   
    46    22    45 1   
    47    23    46 1   
    48    26    47 1   
    49    28    48 1   
    50    29    49 1   
    51    37    50 1   
    52    38    50 1   
    53    39    50 1   
@<TRIPOS>SUBSTRUCTURE
     1 AV8         1 TEMP              0 ****  ****    0 ROOT
