@<TRIPOS>MOLECULE
AV8
   50    53     1     0     0
SMALL
abcg2


@<TRIPOS>ATOM
      1 N1           2.3850    -1.1510     6.9440 n8         1 AV8      -0.998200
      2 C4           5.7210     3.0970     1.4800 ca         1 AV8      -0.173000
      3 C5           4.6230     2.2490     1.6980 ca         1 AV8       0.067000
      4 C6           4.5170     1.4680     2.8980 ca         1 AV8      -0.118300
      5 C7           5.6160     1.5890     3.9160 c3         1 AV8      -0.042800
      6 C8           3.4400     0.6450     3.0810 ca         1 AV8       0.014700
      7 C10          1.8850    -0.7300     4.5800 c6         1 AV8      -0.034700
      8 C13          2.6900    -3.4380     4.0080 ce         1 AV8      -0.495400
      9 C15          2.2550    -2.5850     2.9280 c          1 AV8       0.609300
     10 C17          1.3550    -0.4030     2.1740 c          1 AV8       0.604700
     11 C20          3.6120     2.1970     0.6970 ca         1 AV8      -0.173000
     12 C21          3.7310     2.9980    -0.4780 ca         1 AV8       0.206100
     13 C11          1.8550    -1.7340     5.7330 c6         1 AV8       0.191700
     14 C12          2.4970    -3.0470     5.3280 c2         1 AV8       0.264900
     15 C14          3.3660    -4.7270     3.7840 c          1 AV8       0.645300
     16 C16          1.3610    -1.3960     3.3210 c6         1 AV8       0.008000
     17 C18          2.4420     0.5370     2.0630 ca         1 AV8      -0.317600
     18 C19          2.5180     1.3210     0.9130 ca         1 AV8       0.278100
     19 C2           4.8320     3.8180    -0.6660 ca         1 AV8      -0.149300
     20 C3           5.8100     3.8460     0.3320 ca         1 AV8      -0.032000
     21 C9           3.2840    -0.1620     4.3450 c6         1 AV8      -0.044100
     22 N2           3.6320    -5.1230     2.5490 nt         1 AV8      -0.554000
     23 O1           2.8600    -3.7970     6.3120 oh         1 AV8      -0.569100
     24 O2           3.6840    -5.4360     4.7690 o          1 AV8      -0.678100
     25 O3           2.4850    -2.7880     1.7440 o          1 AV8      -0.568100
     26 O4           0.0750    -1.8940     3.5540 oh         1 AV8      -0.643000
     27 O5           0.4280    -0.4610     1.3630 o          1 AV8      -0.582100
     28 O6           1.5760     1.2540    -0.0220 oh         1 AV8      -0.589100
     29 O7           2.8090     3.0080    -1.4480 oh         1 AV8      -0.534100
     30 H14          2.1400    -1.7140     7.7480 hn         1 AV8       0.415500
     31 H21          3.3960    -1.0990     6.9250 hn         1 AV8       0.415500
     32 H5           6.5120     3.1690     2.2120 ha         1 AV8       0.121000
     33 H7           5.6950     2.6070     4.3030 hc         1 AV8       0.042700
     34 H8           5.4740     0.9300     4.7660 hc         1 AV8       0.042700
     35 H6           6.5850     1.3380     3.4800 hc         1 AV8       0.042700
     36 H11          1.2120     0.0930     4.8400 hc         1 AV8       0.093700
     37 H2           4.1380     5.3600    -2.0100 hc         1 AV8       0.043033
     38 H3           5.8880     5.2210    -1.8890 hc         1 AV8       0.043033
     39 H1           4.9680     4.0370    -2.8100 hc         1 AV8       0.043033
     40 H12          0.8050    -1.9760     5.9280 h1         1 AV8       0.109700
     41 H4           6.6710     4.4880     0.1890 ha         1 AV8       0.114000
     42 H10          4.0290    -0.9650     4.3440 hc         1 AV8       0.066200
     43 H9           3.5270     0.4680     5.2000 hc         1 AV8       0.066200
     44 H16          4.0950    -6.0050     2.3950 hn         1 AV8       0.342000
     45 H15          3.3870    -4.5430     1.7610 hn         1 AV8       0.342000
     46 H17          3.2690    -4.6530     5.8720 ho         1 AV8       0.568000
     47 H18         -0.3820    -1.9780     2.7060 ho         1 AV8       0.479000
     48 H19          0.8800     0.6020     0.2760 ho         1 AV8       0.544000
     49 H20          2.0840     2.3980    -1.2360 ho         1 AV8       0.500000
     50 C1           4.9610     4.6500    -1.9070 c3         1 AV8      -0.027800
@<TRIPOS>BOND
     1     1    13 1   
     2     1    30 1   
     3     1    31 1   
     4     2     3 ar  
     5     2    20 ar  
     6     2    32 1   
     7     3     4 ar  
     8     3    11 ar  
     9     4     5 1   
    10     4     6 ar  
    11     5    33 1   
    12     5    34 1   
    13     5    35 1   
    14     6    17 ar  
    15     6    21 1   
    16     7    13 1   
    17     7    16 1   
    18     7    21 1   
    19     7    36 1   
    20     8     9 1   
    21     8    14 2   
    22     8    15 1   
    23     9    16 1   
    24     9    25 2   
    25    10    16 1   
    26    10    17 1   
    27    10    27 2   
    28    11    12 ar  
    29    11    18 ar  
    30    12    19 ar  
    31    12    29 1   
    32    13    14 1   
    33    13    40 1   
    34    14    23 1   
    35    15    22 1   
    36    15    24 2   
    37    16    26 1   
    38    17    18 ar  
    39    18    28 1   
    40    19    20 ar  
    41    19    50 1   
    42    20    41 1   
    43    21    42 1   
    44    21    43 1   
    45    22    44 1   
    46    22    45 1   
    47    23    46 1   
    48    26    47 1   
    49    28    48 1   
    50    29    49 1   
    51    37    50 1   
    52    38    50 1   
    53    39    50 1   
@<TRIPOS>SUBSTRUCTURE
     1 AV8         1 TEMP              0 ****  ****    0 ROOT
