@<TRIPOS>MOLECULE
AV9
   51    54     1     0     0
SMALL
No Charge or Current Charge


@<TRIPOS>ATOM
      1 C1           6.6800    -0.6770    -0.0160 ca         1 AV9       0.146100
      2 C2           6.0420    -1.4290     0.9940 ca         1 AV9      -0.184000
      3 C3           4.6960    -1.2060     1.3230 ca         1 AV9       0.304000
      4 C4           3.9750    -0.2070     0.6250 ca         1 AV9      -0.093000
      5 C5           4.6030     0.5510    -0.3880 ca         1 AV9      -0.154000
      6 C6           5.9580     0.3190    -0.7120 ca         1 AV9       0.115100
      7 N7           4.1300    -1.9510     2.2990 nb         1 AV9      -0.686000
      8 C8           2.8370    -1.7330     2.6200 ca         1 AV9       0.378900
      9 C9           2.0520    -0.7690     1.9820 ca         1 AV9      -0.261000
     10 C10          2.6230     0.0030     0.9610 ca         1 AV9       0.185100
     11 O11          1.8810     0.9740     0.3220 os         1 AV9      -0.243200
     12 C12          0.5720     0.7850    -0.0600 ca         1 AV9       0.058100
     13 C13         -0.3160     1.8680     0.0010 ca         1 AV9      -0.077000
     14 C15         -2.1220     0.4590    -0.8670 ca         1 AV9       0.021000
     15 C16         -1.2150    -0.6240    -0.9390 ca         1 AV9      -0.129000
     16 C17          0.1240    -0.4600    -0.5420 ca         1 AV9      -0.084000
     17 O25         -8.6190    -1.7240    -1.0270 os         1 AV9      -0.047400
     18 C11         -1.6540     1.7070    -0.3950 ca         1 AV9       0.057000
     19 N28         -3.4870     0.3540    -1.2540 ns         1 AV9      -0.132000
     20 O33          6.6070     1.0420    -1.7000 os         1 AV9      -0.320100
     21 O34          8.0080    -0.8870    -0.3520 os         1 AV9      -0.318100
     22 C35         -4.2440    -0.6980    -1.7250 c          1 AV9       0.773500
     23 O36         -3.8570    -1.8370    -1.9280 o          1 AV9      -0.639100
     24 N37         -5.5270    -0.2580    -1.9440 ne         1 AV9      -0.798100
     25 C38         -6.4600    -0.9350    -1.3760 cd         1 AV9       0.766500
     26 C30         -7.9120    -1.7260     0.1640 cc         1 AV9       0.089900
     27 C43         -6.6290    -1.2410    -0.0220 cd         1 AV9      -0.411600
     28 N21         -7.6350    -1.2300    -1.9320 na         1 AV9      -0.665900
     29 Cl4         -2.7400     3.0930    -0.2910 cl         1 AV9      -0.202000
     30 C49          5.9550     2.0740    -2.4620 c3         1 AV9       0.143900
     31 C53          8.8260    -1.8760     0.2980 c3         1 AV9       0.142900
     32 H2           6.5770    -2.1980     1.5410 ha         1 AV9       0.139000
     33 H5           4.0330     1.3100    -0.9140 ha         1 AV9       0.135000
     34 H8           2.4220    -2.3500     3.4160 h4         1 AV9       0.016100
     35 H9           1.0200    -0.6250     2.2850 ha         1 AV9       0.136000
     36 H13          0.0310     2.8320     0.3610 ha         1 AV9       0.143000
     37 H17          0.8110    -1.3000    -0.6140 ha         1 AV9       0.134000
     38 H16         -1.5260    -1.5980    -1.3030 ha         1 AV9       0.154000
     39 H28         -4.0080     1.2160    -1.1690 hn         1 AV9       0.176000
     40 H21         -8.0970    -0.7310    -2.6830 hn         1 AV9       0.553000
     41 H491         5.5990     2.8770    -1.8060 h1         1 AV9       0.042033
     42 H492         6.6550     2.5110    -3.1850 h1         1 AV9       0.042033
     43 H493         5.1010     1.6670    -3.0190 h1         1 AV9       0.042033
     44 H531         9.8380    -1.8690    -0.1250 h1         1 AV9       0.043700
     45 H532         8.9060    -1.6720     1.3730 h1         1 AV9       0.043700
     46 H533         8.4070    -2.8810     0.1590 h1         1 AV9       0.043700
     47 H43         -5.8930    -1.0660     0.7500 ha         1 AV9       0.257000
     48 H401        -9.3690    -1.4330     1.7160 hc         1 AV9       0.071367
     49 H402        -9.1100    -3.1300     1.2670 hc         1 AV9       0.071367
     50 H403        -7.9010    -2.2770     2.2450 hc         1 AV9       0.071367
     51 C40         -8.6110    -2.1660     1.4170 c3         1 AV9      -0.048900
@<TRIPOS>BOND
     1     1     2 ar  
     2     1     6 ar  
     3     1    21 1   
     4     2     3 ar  
     5     2    32 1   
     6     3     4 ar  
     7     3     7 ar  
     8     4     5 ar  
     9     4    10 ar  
    10     5     6 ar  
    11     5    33 1   
    12     6    20 1   
    13     7     8 ar  
    14     8     9 ar  
    15     8    34 1   
    16     9    10 ar  
    17     9    35 1   
    18    10    11 1   
    19    11    12 1   
    20    12    13 ar  
    21    12    16 ar  
    22    13    18 ar  
    23    13    36 1   
    24    14    15 ar  
    25    14    18 ar  
    26    14    19 1   
    27    15    16 ar  
    28    15    38 1   
    29    16    37 1   
    30    17    26 1   
    31    17    28 1   
    32    18    29 1   
    33    19    22 1   
    34    19    39 1   
    35    20    30 1   
    36    21    31 1   
    37    22    23 2   
    38    22    24 1   
    39    24    25 2   
    40    25    27 1   
    41    25    28 1   
    42    26    27 2   
    43    26    51 1   
    44    27    47 1   
    45    28    40 1   
    46    30    41 1   
    47    30    42 1   
    48    30    43 1   
    49    31    44 1   
    50    31    45 1   
    51    31    46 1   
    52    48    51 1   
    53    49    51 1   
    54    50    51 1   
@<TRIPOS>SUBSTRUCTURE
     1 AV9         1 TEMP              0 ****  ****    0 ROOT
