@<TRIPOS>MOLECULE
AV9
   51    54     1     0     0
SMALL
bcc


@<TRIPOS>ATOM
      1 C1           6.9100    -0.4700     0.1590 ca         1 AV9       0.146100
      2 C2           6.2560    -0.8630     1.2940 ca         1 AV9      -0.267300
      3 C3           4.8480    -0.7610     1.3960 ca         1 AV9       0.434600
      4 C4           4.1220    -0.2430     0.3030 ca         1 AV9      -0.158300
      5 C5           4.8060     0.1640    -0.8680 ca         1 AV9      -0.172000
      6 C6           6.1670     0.0570    -0.9480 ca         1 AV9       0.115100
      7 N7           4.2610    -1.1690     2.5450 nb         1 AV9      -0.686000
      8 C8           2.9590    -1.0720     2.6280 ca         1 AV9       0.444200
      9 C9           2.1270    -0.5760     1.6120 ca         1 AV9      -0.344300
     10 C10          2.7170    -0.1600     0.4430 ca         1 AV9       0.185100
     11 O11          2.0470     0.3410    -0.6160 os         1 AV9      -0.243200
     12 C12          0.6740     0.4070    -0.5690 ca         1 AV9       0.058100
     13 C13          0.0680     1.5810    -0.1600 ca         1 AV9      -0.095000
     14 C15         -2.1240     0.5800    -0.5460 ca         1 AV9       0.113600
     15 C16         -1.4710    -0.5840    -0.9660 ca         1 AV9      -0.147000
     16 C17         -0.0900    -0.6730    -0.9700 ca         1 AV9      -0.102000
     17 O25         -8.9690    -0.7670    -0.2130 os         1 AV9      -0.047400
     18 C11         -1.3140     1.6550    -0.1520 ca         1 AV9      -0.034600
     19 N28         -3.4980     0.7300    -0.5400 ns         1 AV9      -0.458100
     20 O33          6.9140     0.4100    -2.0030 os         1 AV9      -0.296900
     21 O34          8.2320    -0.5270    -0.0330 os         1 AV9      -0.294900
     22 C35         -4.4670    -0.2520    -0.5030 c          1 AV9       0.840500
     23 O36         -4.1930    -1.4450    -0.5020 o          1 AV9      -0.639100
     24 N37         -5.6990     0.3270    -0.4710 ne         1 AV9      -0.798100
     25 C38         -6.7570    -0.4350    -0.3910 cd         1 AV9       0.766500
     26 C30         -8.3670    -1.9630    -0.1580 cc         1 AV9       0.089900
     27 C43         -7.0260    -1.8410    -0.2690 cd         1 AV9      -0.361600
     28 N21         -7.9790     0.1400    -0.4270 na         1 AV9      -0.610700
     29 CL4         -2.0460     3.1370     0.3710 cl         1 AV9      -0.110400
     30 C49          6.2580     0.9580    -3.1300 c3         1 AV9       0.120700
     31 C53          9.0370    -1.0370     1.0130 c3         1 AV9       0.119700
     32 H2           6.7860    -1.2640     2.1470 ha         1 AV9       0.157000
     33 H5           4.2420     0.5620    -1.6990 ha         1 AV9       0.153000
     34 H8           2.5030    -1.4030     3.5550 h4         1 AV9       0.016100
     35 H9           1.0590    -0.5360     1.7710 ha         1 AV9       0.154000
     36 H13          0.6610     2.4310     0.1490 ha         1 AV9       0.161000
     37 H17          0.3850    -1.5860    -1.3060 ha         1 AV9       0.152000
     38 H16         -2.0480    -1.4310    -1.3000 ha         1 AV9       0.172000
     39 H28         -3.8560     1.6690    -0.4590 hn         1 AV9       0.342500
     40 H21         -8.2250     1.0900    -0.1870 hn         1 AV9       0.497800
     41 H491         5.7250     1.8790    -2.8810 h1         1 AV9       0.042033
     42 H492         7.0330     1.1850    -3.8570 h1         1 AV9       0.042033
     43 H493         5.5530     0.2500    -3.5730 h1         1 AV9       0.042033
     44 H531        10.0630    -1.0050     0.6570 h1         1 AV9       0.043700
     45 H532         8.9560    -0.4290     1.9180 h1         1 AV9       0.043700
     46 H533         8.7770    -2.0700     1.2570 h1         1 AV9       0.043700
     47 H43         -6.3120    -2.6420    -0.2510 ha         1 AV9       0.207000
     48 H401        -9.8380    -3.0670     0.9080 hc         1 AV9       0.071367
     49 H402        -9.9350    -3.2220    -0.8460 hc         1 AV9       0.071367
     50 H403        -8.6460    -4.0440     0.0410 hc         1 AV9       0.071367
     51 C40         -9.2460    -3.1390    -0.0050 c3         1 AV9      -0.048900
@<TRIPOS>BOND
     1     1     2 ar  
     2     1     6 ar  
     3     1    21 1   
     4     2     3 ar  
     5     2    32 1   
     6     3     4 ar  
     7     3     7 ar  
     8     4     5 ar  
     9     4    10 ar  
    10     5     6 ar  
    11     5    33 1   
    12     6    20 1   
    13     7     8 ar  
    14     8     9 ar  
    15     8    34 1   
    16     9    10 ar  
    17     9    35 1   
    18    10    11 1   
    19    11    12 1   
    20    12    13 ar  
    21    12    16 ar  
    22    13    18 ar  
    23    13    36 1   
    24    14    15 ar  
    25    14    18 ar  
    26    14    19 1   
    27    15    16 ar  
    28    15    38 1   
    29    16    37 1   
    30    17    26 1   
    31    17    28 1   
    32    18    29 1   
    33    19    22 1   
    34    19    39 1   
    35    20    30 1   
    36    21    31 1   
    37    22    23 2   
    38    22    24 1   
    39    24    25 2   
    40    25    27 1   
    41    25    28 1   
    42    26    27 2   
    43    26    51 1   
    44    27    47 1   
    45    28    40 1   
    46    30    41 1   
    47    30    42 1   
    48    30    43 1   
    49    31    44 1   
    50    31    45 1   
    51    31    46 1   
    52    48    51 1   
    53    49    51 1   
    54    50    51 1   
@<TRIPOS>SUBSTRUCTURE
     1 AV9         1 TEMP              0 ****  ****    0 ROOT
