@<TRIPOS>MOLECULE
AVA
   23    24     1     0     0
SMALL
abcg2


@<TRIPOS>ATOM
      1 C1           2.0300    -0.0930    -0.0670 ca         1 AVA      -0.148600
      2 C2           0.7010     0.3140    -0.0690 ca         1 AVA      -0.036000
      3 C3          -0.3440    -0.6000     0.0730 cp         1 AVA      -0.203500
      4 C4          -1.7480    -0.1300     0.0550 cp         1 AVA       0.445500
      5 C5          -2.7990    -0.9720    -0.3140 ca         1 AVA      -0.171000
      6 C6          -4.0920    -0.4780    -0.3090 ca         1 AVA      -0.082000
      7 O1           4.3140     0.4790    -0.2330 o          1 AVA      -0.718500
      8 N           -1.9610     1.1410     0.3940 nb         1 AVA      -0.661000
      9 C            3.1520     0.9260    -0.2390 c          1 AVA       0.713600
     10 O            2.8110     2.1170    -0.3700 o          1 AVA      -0.718500
     11 C10          1.2900    -2.3670     0.2480 ca         1 AVA      -0.158000
     12 C11          2.3160    -1.4470     0.0940 ca         1 AVA      -0.067000
     13 C7          -4.3080     0.8430     0.0540 ca         1 AVA      -0.198000
     14 C8          -3.2020     1.6080     0.3910 ca         1 AVA       0.341900
     15 C9          -0.0330    -1.9500     0.2370 ca         1 AVA      -0.117000
     16 H            0.4750     1.3640    -0.1920 ha         1 AVA       0.147000
     17 H1          -2.6140    -1.9930    -0.6170 ha         1 AVA       0.120000
     18 H2          -4.9200    -1.1160    -0.5920 ha         1 AVA       0.101000
     19 H6           1.5170    -3.4170     0.3850 ha         1 AVA       0.086000
     20 H7           3.3460    -1.7780     0.1020 ha         1 AVA       0.128000
     21 H3          -5.3000     1.2720     0.0730 ha         1 AVA       0.107000
     22 H4          -3.3240     2.6480     0.6740 h4         1 AVA       0.009100
     23 H5          -0.8160    -2.6840     0.3770 ha         1 AVA       0.082000
@<TRIPOS>BOND
     1     1     2 ar  
     2     1     9 1   
     3     1    12 ar  
     4     2     3 ar  
     5     2    16 1   
     6     3     4 1   
     7     3    15 ar  
     8     4     5 ar  
     9     4     8 ar  
    10     5     6 ar  
    11     5    17 1   
    12     6    13 ar  
    13     6    18 1   
    14     7     9 1   
    15     8    14 ar  
    16     9    10 1   
    17    11    12 ar  
    18    11    15 ar  
    19    11    19 1   
    20    12    20 1   
    21    13    14 ar  
    22    13    21 1   
    23    14    22 1   
    24    15    23 1   
@<TRIPOS>SUBSTRUCTURE
     1 AVA         1 TEMP              0 ****  ****    0 ROOT
