@<TRIPOS>MOLECULE
AVA
   23    24     1     0     0
SMALL
No Charge or Current Charge


@<TRIPOS>ATOM
      1 C1           2.0880    -0.0880    -0.0640 ca         1 AVA      -0.148600
      2 C2           0.7370     0.3320    -0.0730 ca         1 AVA      -0.036000
      3 C3          -0.3410    -0.5890     0.0640 cp         1 AVA      -0.203500
      4 C4          -1.7750    -0.1220     0.0490 cp         1 AVA       0.445500
      5 C5          -2.8520    -0.9800    -0.2980 ca         1 AVA      -0.171000
      6 C6          -4.1690    -0.4940    -0.2940 ca         1 AVA      -0.082000
      7 O1           4.3690     0.5170    -0.1890 o          1 AVA      -0.718500
      8 N           -1.9960     1.1740     0.3730 nb         1 AVA      -0.661000
      9 C            3.2140     0.9200    -0.2190 c          1 AVA       0.713600
     10 O            2.9290     2.1000    -0.3690 o          1 AVA      -0.718500
     11 C10          1.3240    -2.3890     0.2320 ca         1 AVA      -0.158000
     12 C11          2.3680    -1.4640     0.0900 ca         1 AVA      -0.067000
     13 C7          -4.3720     0.8480     0.0560 ca         1 AVA      -0.198000
     14 C8          -3.2620     1.6450     0.3800 ca         1 AVA       0.341900
     15 C9          -0.0120    -1.9610     0.2200 ca         1 AVA      -0.117000
     16 H            0.5170     1.3900    -0.1980 ha         1 AVA       0.147000
     17 H1          -2.6670    -2.0100    -0.5810 ha         1 AVA       0.120000
     18 H2          -5.0050    -1.1380    -0.5580 ha         1 AVA       0.101000
     19 H6           1.5520    -3.4450     0.3560 ha         1 AVA       0.086000
     20 H7           3.3960    -1.8200     0.1020 ha         1 AVA       0.128000
     21 H3          -5.3710     1.2730     0.0740 ha         1 AVA       0.107000
     22 H4          -3.3890     2.6920     0.6510 h4         1 AVA       0.009100
     23 H5          -0.7920    -2.7050     0.3510 ha         1 AVA       0.082000
@<TRIPOS>BOND
     1     1     2 ar  
     2     1     9 1   
     3     1    12 ar  
     4     2     3 ar  
     5     2    16 1   
     6     3     4 1   
     7     3    15 ar  
     8     4     5 ar  
     9     4     8 ar  
    10     5     6 ar  
    11     5    17 1   
    12     6    13 ar  
    13     6    18 1   
    14     7     9 1   
    15     8    14 ar  
    16     9    10 1   
    17    11    12 ar  
    18    11    15 ar  
    19    11    19 1   
    20    12    20 1   
    21    13    14 ar  
    22    13    21 1   
    23    14    22 1   
    24    15    23 1   
@<TRIPOS>SUBSTRUCTURE
     1 AVA         1 TEMP              0 ****  ****    0 ROOT
