@<TRIPOS>MOLECULE
AVB
   30    31     1     0     0
SMALL
bcc


@<TRIPOS>ATOM
      1 BR1         -4.8390    -0.0370     0.2890 br         1 AVB      -0.078100
      2 C02         -2.9690    -0.2270     0.3270 ca         1 AVB      -0.187200
      3 C03         -2.3670    -1.2100     1.1030 ca         1 AVB      -0.035000
      4 C04         -0.9930    -1.3040     1.0930 ca         1 AVB      -0.304300
      5 C05         -0.2630    -0.4050     0.3050 ca         1 AVB       0.569200
      6 N06         -0.8430     0.5280    -0.4280 nb         1 AVB      -0.681000
      7 C07         -2.1660     0.6160    -0.4200 ca         1 AVB       0.474200
      8 N08          1.1210    -0.5130     0.3250 ns         1 AVB      -0.562400
      9 C09          2.0590     0.1500    -0.4200 c          1 AVB       0.674100
     10 O10          1.7950     0.9660    -1.2780 o          1 AVB      -0.526100
     11 C11          3.4860    -0.2180    -0.0700 c6         1 AVB      -0.147700
     12 C12          4.2190     0.9990     0.5070 c6         1 AVB      -0.068400
     13 C13          5.6810     0.6580     0.7690 c6         1 AVB      -0.075400
     14 C14          6.3310     0.0950    -0.4850 c6         1 AVB       0.157800
     15 N15          5.5900    -1.0680    -0.9430 n7         1 AVB      -0.813200
     16 C16          4.2260    -0.7360    -1.3050 c6         1 AVB       0.167800
     17 H1          -2.9520    -1.8940     1.7030 ha         1 AVB       0.151000
     18 H2          -0.4940    -2.0620     1.6830 ha         1 AVB       0.143000
     19 H3          -2.5990     1.3970    -1.0360 h4         1 AVB       0.039100
     20 H4           1.4820    -1.1970     0.9710 hn         1 AVB       0.321500
     21 H5           3.4970    -1.0140     0.6820 hc         1 AVB       0.062700
     22 H6           4.1600     1.8250    -0.2090 hc         1 AVB       0.053200
     23 H7           3.7300     1.3330     1.4250 hc         1 AVB       0.053200
     24 H8           6.2200     1.5490     1.0980 hc         1 AVB       0.048700
     25 H9           5.7530    -0.0770     1.5760 hc         1 AVB       0.048700
     26 H10          6.3780     0.8910    -1.2470 h1         1 AVB       0.033200
     27 H11          7.3600    -0.2050    -0.2750 h1         1 AVB       0.033200
     28 H12          6.0570    -1.4740    -1.7420 hn         1 AVB       0.361800
     29 H14          3.7340    -1.6350    -1.6830 h1         1 AVB       0.044200
     30 H15          4.1690     0.0250    -2.0990 h1         1 AVB       0.044200
@<TRIPOS>BOND
     1     1     2 1   
     2     2     3 ar  
     3     2     7 ar  
     4     3     4 ar  
     5     3    17 1   
     6     4     5 ar  
     7     4    18 1   
     8     5     6 ar  
     9     5     8 1   
    10     6     7 ar  
    11     7    19 1   
    12     8     9 1   
    13     8    20 1   
    14     9    10 2   
    15     9    11 1   
    16    11    12 1   
    17    11    16 1   
    18    11    21 1   
    19    12    13 1   
    20    12    22 1   
    21    12    23 1   
    22    13    14 1   
    23    13    24 1   
    24    13    25 1   
    25    14    15 1   
    26    14    26 1   
    27    14    27 1   
    28    15    16 1   
    29    15    28 1   
    30    16    29 1   
    31    16    30 1   
@<TRIPOS>SUBSTRUCTURE
     1 AVB         1 TEMP              0 ****  ****    0 ROOT
