@<TRIPOS>MOLECULE
AVB
   30    31     1     0     0
SMALL
No Charge or Current Charge


@<TRIPOS>ATOM
      1 Br1         -4.9320     0.0070     0.4370 br         1 AVB      -0.078100
      2 C02         -3.0300    -0.2090     0.4120 ca         1 AVB      -0.121900
      3 C03         -2.4510    -1.4230     0.8120 ca         1 AVB      -0.017000
      4 C04         -1.0510    -1.5240     0.7750 ca         1 AVB      -0.221000
      5 C05         -0.2970    -0.4290     0.3270 ca         1 AVB       0.503900
      6 N06         -0.8450     0.7500    -0.0300 nb         1 AVB      -0.681000
      7 C07         -2.1950     0.8490     0.0040 ca         1 AVB       0.408900
      8 N08          1.1020    -0.4740     0.3410 ns         1 AVB      -0.328900
      9 C09          2.0250     0.1350    -0.4840 c          1 AVB       0.607100
     10 O10          1.7250     0.8090    -1.4610 o          1 AVB      -0.526100
     11 C11          3.4980    -0.1080    -0.1080 c6         1 AVB      -0.147700
     12 C12          4.2480     1.1780     0.3330 c6         1 AVB      -0.068400
     13 C13          5.7150     0.8440     0.6990 c6         1 AVB      -0.075400
     14 C14          6.4050     0.0450    -0.4350 c6         1 AVB       0.157800
     15 N15          5.6490    -1.1900    -0.7610 n7         1 AVB      -0.868400
     16 C16          4.2520    -0.9230    -1.1840 c6         1 AVB       0.167800
     17 H1          -3.0660    -2.2570     1.1440 ha         1 AVB       0.133000
     18 H2          -0.5550    -2.4400     1.0850 ha         1 AVB       0.125000
     19 H3          -2.6190     1.8050    -0.3000 h4         1 AVB       0.039100
     20 H4           1.4900    -1.0540     1.0720 hn         1 AVB       0.155000
     21 H5           3.4710    -0.7520     0.7820 hc         1 AVB       0.062700
     22 H6           4.2320     1.9160    -0.4820 hc         1 AVB       0.053200
     23 H7           3.7410     1.6440     1.1900 hc         1 AVB       0.053200
     24 H8           6.2730     1.7690     0.8960 hc         1 AVB       0.048700
     25 H9           5.7420     0.2580     1.6280 hc         1 AVB       0.048700
     26 H10          6.4840     0.6760    -1.3340 h1         1 AVB       0.033200
     27 H11          7.4270    -0.2210    -0.1260 h1         1 AVB       0.033200
     28 H12          6.1360    -1.6860    -1.5200 hn         1 AVB       0.417000
     29 H14          3.7320    -1.8760    -1.3640 h1         1 AVB       0.044200
     30 H15          4.2570    -0.3620    -2.1320 h1         1 AVB       0.044200
@<TRIPOS>BOND
     1     1     2 1   
     2     2     3 ar  
     3     2     7 ar  
     4     3     4 ar  
     5     3    17 1   
     6     4     5 ar  
     7     4    18 1   
     8     5     6 ar  
     9     5     8 1   
    10     6     7 ar  
    11     7    19 1   
    12     8     9 1   
    13     8    20 1   
    14     9    10 2   
    15     9    11 1   
    16    11    12 1   
    17    11    16 1   
    18    11    21 1   
    19    12    13 1   
    20    12    22 1   
    21    12    23 1   
    22    13    14 1   
    23    13    24 1   
    24    13    25 1   
    25    14    15 1   
    26    14    26 1   
    27    14    27 1   
    28    15    16 1   
    29    15    28 1   
    30    16    29 1   
    31    16    30 1   
@<TRIPOS>SUBSTRUCTURE
     1 AVB         1 TEMP              0 ****  ****    0 ROOT
