@<TRIPOS>MOLECULE
AVD
   44    47     1     0     0
SMALL
abcg2


@<TRIPOS>ATOM
      1 C5           5.7530     0.6760     1.5090 ca         1 AVD       0.150000
      2 C6           4.4850     0.7050     2.0500 ca         1 AVD      -0.176000
      3 C2           3.6620    -0.5140     0.0990 ca         1 AVD       0.286000
      4 C4           6.0220     0.0720     0.2970 ca         1 AVD      -0.156000
      5 O40         -3.0710     0.6480     2.1560 o          1 AVD      -0.699000
      6 O41         -2.3080     2.7140     2.5310 o          1 AVD      -0.699000
      7 C34         -3.3390     2.2750     0.4770 ca         1 AVD      -0.111600
      8 C33         -3.8830     3.5370     0.3360 ca         1 AVD      -0.093000
      9 C32         -4.3880     3.9810    -0.8770 ca         1 AVD      -0.139000
     10 C31         -4.3410     3.1570    -1.9950 ca         1 AVD      -0.146000
     11 C30         -3.8170     1.8810    -1.8740 ca         1 AVD      -0.122000
     12 C28         -3.3290     1.4470    -0.6440 ca         1 AVD       0.266000
     13 N21         -2.8110     0.1110    -0.5660 na         1 AVD      -0.644000
     14 C22         -3.6860    -0.8940    -0.4060 cc         1 AVD       0.090000
     15 C23         -3.3790    -2.2160    -0.2890 cd         1 AVD      -0.328400
     16 C26         -4.5410    -3.1890    -0.1740 c          1 AVD       0.733200
     17 O42         -5.6820    -2.6690    -0.0200 o          1 AVD      -0.732500
     18 O27         -4.3020    -4.3970    -0.2470 o          1 AVD      -0.732500
     19 C24         -1.9860    -2.6130    -0.2580 c          1 AVD       0.605900
     20 O25         -1.5740    -3.7620    -0.1030 o          1 AVD      -0.582100
     21 C17         -1.0290    -1.4910    -0.4250 ca         1 AVD      -0.189600
     22 C18          0.3350    -1.7700    -0.4190 ca         1 AVD      -0.062000
     23 C16         -1.4500    -0.1610    -0.5660 ca         1 AVD       0.361000
     24 C15         -0.4930     0.8490    -0.7340 ca         1 AVD      -0.137000
     25 C14          0.8460     0.5300    -0.7510 ca         1 AVD       0.145000
     26 CL29         1.9830     1.7910    -1.0480 cl         1 AVD      -0.239000
     27 C13          1.2960    -0.7900    -0.5700 ca         1 AVD       0.190000
     28 N10          2.6390    -1.1340    -0.6130 nu         1 AVD      -0.965000
     29 C3           4.9680    -0.5020    -0.3950 ca         1 AVD       0.104000
     30 CL12         5.2790    -1.2410    -1.9200 cl         1 AVD      -0.204000
     31 F11          6.7530     1.2490     2.1800 f          1 AVD      -0.189000
     32 C1           3.4740     0.0910     1.3420 ca         1 AVD       0.177000
     33 F9           2.2480     0.0810     1.8680 f          1 AVD      -0.130000
     34 H6           4.2840     1.1750     3.0040 ha         1 AVD       0.148000
     35 H4           7.0270     0.0610    -0.1040 ha         1 AVD       0.130000
     36 H33         -3.9080     4.1940     1.1920 ha         1 AVD       0.122000
     37 H32         -4.8100     4.9750    -0.9480 ha         1 AVD       0.081000
     38 H31         -4.7230     3.4980    -2.9490 ha         1 AVD       0.084000
     39 H30         -3.7690     1.2160    -2.7310 ha         1 AVD       0.108000
     40 H22         -4.7240    -0.5930    -0.4030 h4         1 AVD       0.229000
     41 H18          0.6450    -2.7960    -0.2720 ha         1 AVD       0.126000
     42 H15         -0.7890     1.8770    -0.8710 ha         1 AVD       0.139000
     43 HN10         2.8210    -2.0870    -0.8850 hn         1 AVD       0.490000
     44 C39         -2.8520     1.8320     1.8470 c          1 AVD       0.709600
@<TRIPOS>BOND
     1     1     2 ar  
     2     1     4 ar  
     3     1    31 1   
     4     2    32 ar  
     5     2    34 1   
     6     3    28 1   
     7     3    29 ar  
     8     3    32 ar  
     9     4    29 ar  
    10     4    35 1   
    11     5    44 1   
    12     6    44 1   
    13     7     8 ar  
    14     7    12 ar  
    15     7    44 1   
    16     8     9 ar  
    17     8    36 1   
    18     9    10 ar  
    19     9    37 1   
    20    10    11 ar  
    21    10    38 1   
    22    11    12 ar  
    23    11    39 1   
    24    12    13 1   
    25    13    14 1   
    26    13    23 1   
    27    14    15 2   
    28    14    40 1   
    29    15    16 1   
    30    15    19 1   
    31    16    17 1   
    32    16    18 1   
    33    19    20 2   
    34    19    21 1   
    35    21    22 ar  
    36    21    23 ar  
    37    22    27 ar  
    38    22    41 1   
    39    23    24 ar  
    40    24    25 ar  
    41    24    42 1   
    42    25    26 1   
    43    25    27 ar  
    44    27    28 1   
    45    28    43 1   
    46    29    30 1   
    47    32    33 1   
@<TRIPOS>SUBSTRUCTURE
     1 AVD         1 TEMP              0 ****  ****    0 ROOT
