@<TRIPOS>MOLECULE
AVD
   44    47     1     0     0
SMALL
No Charge or Current Charge


@<TRIPOS>ATOM
      1 C5           6.0750     0.6640     1.3840 ca         1 AVD       0.150000
      2 C6           4.8140     0.8710     1.9570 ca         1 AVD      -0.176000
      3 C2           3.7740    -0.4450     0.1560 ca         1 AVD       0.286000
      4 C4           6.2060    -0.1010     0.2180 ca         1 AVD      -0.156000
      5 O40         -4.3530     1.3170     2.5730 o          1 AVD      -0.699000
      6 O41         -2.2330     1.6200     2.3170 o          1 AVD      -0.699000
      7 C34         -3.6300     2.1680     0.5240 ca         1 AVD      -0.111600
      8 C33         -4.1240     3.4810     0.3770 ca         1 AVD      -0.093000
      9 C32         -4.3630     4.0110    -0.9020 ca         1 AVD      -0.139000
     10 C31         -4.1140     3.2320    -2.0410 ca         1 AVD      -0.146000
     11 C30         -3.6260     1.9210    -1.8990 ca         1 AVD      -0.122000
     12 C28         -3.3810     1.3840    -0.6210 ca         1 AVD       0.266000
     13 N21         -2.9060     0.0750    -0.5240 na         1 AVD      -0.644000
     14 C22         -3.9040    -0.9090    -0.4280 cc         1 AVD       0.090000
     15 C23         -3.4630    -2.2220    -0.3060 cd         1 AVD      -0.328400
     16 C26         -4.5240    -3.2640    -0.2040 c          1 AVD       0.733200
     17 O42         -5.6900    -2.9000    -0.2380 o          1 AVD      -0.732500
     18 O27         -4.2410    -4.4450    -0.0950 o          1 AVD      -0.732500
     19 C24         -2.0310    -2.5920    -0.2750 c          1 AVD       0.605900
     20 O25         -1.6170    -3.7410    -0.1620 o          1 AVD      -0.582100
     21 C17         -1.0490    -1.4870    -0.3940 ca         1 AVD      -0.189600
     22 C18          0.3430    -1.7440    -0.3890 ca         1 AVD      -0.062000
     23 C16         -1.5270    -0.1830    -0.5150 ca         1 AVD       0.361000
     24 C15         -0.5950     0.8700    -0.6460 ca         1 AVD      -0.137000
     25 C14          0.7860     0.6250    -0.6390 ca         1 AVD       0.145000
     26 Cl29         1.8670     2.0050    -0.8890 cl         1 AVD      -0.239000
     27 C13          1.2740    -0.6990    -0.4930 ca         1 AVD       0.190000
     28 N10          2.6450    -1.0250    -0.4820 nu         1 AVD      -0.965000
     29 C3           5.0670    -0.6570    -0.3900 ca         1 AVD       0.104000
     30 Cl12         5.2870    -1.6210    -1.8560 cl         1 AVD      -0.204000
     31 F11          7.1710     1.1940     1.9670 f          1 AVD      -0.189000
     32 C1           3.6710     0.3190     1.3540 ca         1 AVD       0.177000
     33 F9           2.4750     0.5070     1.9620 f          1 AVD      -0.130000
     34 H6           4.7210     1.4510     2.8700 ha         1 AVD       0.148000
     35 H4           7.1890    -0.2650    -0.2140 ha         1 AVD       0.130000
     36 H33         -4.3200     4.0880     1.2590 ha         1 AVD       0.122000
     37 H32         -4.7420     5.0250    -1.0080 ha         1 AVD       0.081000
     38 H31         -4.2990     3.6390    -3.0320 ha         1 AVD       0.084000
     39 H30         -3.4370     1.3170    -2.7830 ha         1 AVD       0.108000
     40 H22         -4.9470    -0.5920    -0.4500 h4         1 AVD       0.229000
     41 H18          0.7090    -2.7630    -0.2900 ha         1 AVD       0.126000
     42 H15         -0.9260     1.8950    -0.7620 ha         1 AVD       0.139000
     43 HN10         2.8860    -1.8380    -1.0560 hn         1 AVD       0.490000
     44 C39         -3.3810     1.6190     1.8950 c          1 AVD       0.709600
@<TRIPOS>BOND
     1     1     2 ar  
     2     1     4 ar  
     3     1    31 1   
     4     2    32 ar  
     5     2    34 1   
     6     3    28 1   
     7     3    29 ar  
     8     3    32 ar  
     9     4    29 ar  
    10     4    35 1   
    11     5    44 1   
    12     6    44 1   
    13     7     8 ar  
    14     7    12 ar  
    15     7    44 1   
    16     8     9 ar  
    17     8    36 1   
    18     9    10 ar  
    19     9    37 1   
    20    10    11 ar  
    21    10    38 1   
    22    11    12 ar  
    23    11    39 1   
    24    12    13 1   
    25    13    14 1   
    26    13    23 1   
    27    14    15 2   
    28    14    40 1   
    29    15    16 1   
    30    15    19 1   
    31    16    17 1   
    32    16    18 1   
    33    19    20 2   
    34    19    21 1   
    35    21    22 ar  
    36    21    23 ar  
    37    22    27 ar  
    38    22    41 1   
    39    23    24 ar  
    40    24    25 ar  
    41    24    42 1   
    42    25    26 1   
    43    25    27 ar  
    44    27    28 1   
    45    28    43 1   
    46    29    30 1   
    47    32    33 1   
@<TRIPOS>SUBSTRUCTURE
     1 AVD         1 TEMP              0 ****  ****    0 ROOT
