@<TRIPOS>MOLECULE
AVE
   36    37     1     0     0
SMALL
bcc


@<TRIPOS>ATOM
      1 C1           5.9760    -1.3970    -0.3030 ca         1 AVE       0.118900
      2 C2           4.7920    -2.0490    -0.0040 ca         1 AVE       0.092900
      3 C3           3.6640    -1.3250     0.3040 ca         1 AVE      -0.118000
      4 C13          0.0800     0.9440     0.2500 c          1 AVE       0.794100
      5 C15         -2.1710     0.7430    -0.6240 ca         1 AVE       0.027600
      6 C16         -2.6530     2.0470    -0.5930 ca         1 AVE      -0.140000
      7 C19         -4.4590    -0.0560    -0.6530 ca         1 AVE      -0.081000
      8 C20         -3.0990    -0.2960    -0.6410 ca         1 AVE       0.026100
      9 O28          2.5190     1.6300     1.6500 o          1 AVE      -0.497100
     10 C30         -2.4790    -2.2840     0.4220 c3         1 AVE       0.848700
     11 C5           4.9080     0.7070     0.0310 ca         1 AVE       0.072400
     12 C6           6.0420    -0.0200    -0.2970 ca         1 AVE      -0.156000
     13 F11          7.0560    -2.1130    -0.6010 f          1 AVE      -0.119900
     14 F34          4.7590    -3.3800    -0.0180 f          1 AVE      -0.117900
     15 C4           3.7100     0.0670     0.3310 ca         1 AVE      -0.143600
     16 N12          1.3790     0.4910     0.0200 ns         1 AVE      -0.624500
     17 O27         -0.2250     1.6750     1.1610 o          1 AVE      -0.547100
     18 N14         -0.7970     0.4640    -0.6750 ns         1 AVE      -0.491100
     19 C17         -4.0160     2.2910    -0.5700 ca         1 AVE      -0.082000
     20 C18         -4.9360     1.2490    -0.6080 ca         1 AVE      -0.128600
     21 O26         -6.7800     2.7170    -0.5330 o          1 AVE      -0.813300
     22 O25         -7.1810     0.5290    -0.6930 o          1 AVE      -0.813300
     23 O29         -2.6290    -1.6030    -0.7220 os         1 AVE      -0.392900
     24 F32         -1.9450    -3.4570     0.1210 f          1 AVE      -0.237300
     25 F33         -1.6790    -1.6670     1.2930 f          1 AVE      -0.237300
     26 F31         -3.6360    -2.4990     1.0490 f          1 AVE      -0.237300
     27 H3           2.7490    -1.8530     0.5430 ha         1 AVE       0.170000
     28 H16         -1.9560     2.8740    -0.6030 ha         1 AVE       0.133000
     29 H19         -5.1550    -0.8830    -0.7010 ha         1 AVE       0.171000
     30 H6           6.9710     0.4740    -0.5480 ha         1 AVE       0.168000
     31 HN12         1.5350    -0.1040    -0.7810 hn         1 AVE       0.314500
     32 HN14        -0.4900    -0.2360    -1.3330 hn         1 AVE       0.317500
     33 H17         -4.3710     3.3120    -0.5430 ha         1 AVE       0.159000
     34 C9           2.4900     0.8280     0.7510 c          1 AVE       0.700700
     35 CL10         5.0120     2.4270    -0.0020 cl         1 AVE      -0.060400
     36 C24         -6.4370     1.5230    -0.6110 c          1 AVE       0.926200
@<TRIPOS>BOND
     1     1     2 ar  
     2     1    12 ar  
     3     1    13 1   
     4     2     3 ar  
     5     2    14 1   
     6     3    15 ar  
     7     3    27 1   
     8     4    16 1   
     9     4    17 2   
    10     4    18 1   
    11     5     6 ar  
    12     5     8 ar  
    13     5    18 1   
    14     6    19 ar  
    15     6    28 1   
    16     7     8 ar  
    17     7    20 ar  
    18     7    29 1   
    19     8    23 1   
    20     9    34 2   
    21    10    23 1   
    22    10    24 1   
    23    10    25 1   
    24    10    26 1   
    25    11    12 ar  
    26    11    15 ar  
    27    11    35 1   
    28    12    30 1   
    29    15    34 1   
    30    16    31 1   
    31    16    34 1   
    32    18    32 1   
    33    19    20 ar  
    34    19    33 1   
    35    20    36 1   
    36    21    36 1   
    37    22    36 1   
@<TRIPOS>SUBSTRUCTURE
     1 AVE         1 TEMP              0 ****  ****    0 ROOT
