@<TRIPOS>MOLECULE
AVE
   36    37     1     0     0
SMALL
No Charge or Current Charge


@<TRIPOS>ATOM
      1 C1           5.9380    -1.6650     0.1100 ca         1 AVE       0.154000
      2 C2           4.6680    -1.9310     0.6450 ca         1 AVE       0.128000
      3 C3           3.6680    -0.9460     0.6110 ca         1 AVE      -0.100000
      4 C13          0.3570     1.5590    -0.0210 c          1 AVE       0.660100
      5 C15         -2.1240     0.8770    -0.1710 ca         1 AVE      -0.065000
      6 C16         -2.7320     2.1470    -0.0860 ca         1 AVE      -0.122000
      7 C19         -4.3460    -0.1360    -0.3280 ca         1 AVE      -0.063000
      8 C20         -2.9370    -0.2710    -0.2930 ca         1 AVE       0.026100
      9 O28          3.0780     2.5800     0.1360 o          1 AVE      -0.497100
     10 C30         -2.9730    -2.7700    -0.5010 c3         1 AVE       0.508000
     11 C5           5.2180     0.5820    -0.4950 ca         1 AVE       0.164000
     12 C6           6.2090    -0.4140    -0.4580 ca         1 AVE      -0.138000
     13 F11          6.9050    -2.6110     0.1380 f          1 AVE      -0.155000
     14 F34          4.4000    -3.1340     1.2030 f          1 AVE      -0.153000
     15 C4           3.9240     0.3300     0.0400 ca         1 AVE      -0.143600
     16 N12          1.5570     0.8990    -0.0440 ns         1 AVE      -0.490500
     17 O27          0.2560     2.7710     0.0940 o          1 AVE      -0.547100
     18 N14         -0.7120     0.6840    -0.1410 ns         1 AVE      -0.165000
     19 C17         -4.1300     2.2740    -0.1220 ca         1 AVE      -0.064000
     20 C18         -4.9570     1.1360    -0.2430 ca         1 AVE      -0.128600
     21 O26         -6.9540     2.3970    -0.2030 o          1 AVE      -0.708000
     22 O25         -7.1490     0.2660    -0.3870 o          1 AVE      -0.708000
     23 O29         -2.2970    -1.5010    -0.3740 os         1 AVE      -0.416100
     24 F32         -2.0780    -3.7810    -0.5560 f          1 AVE      -0.116000
     25 F33         -3.7860    -3.0220     0.5500 f          1 AVE      -0.116000
     26 F31         -3.7150    -2.8410    -1.6300 f          1 AVE      -0.116000
     27 H3           2.7070    -1.1800     1.0630 ha         1 AVE       0.152000
     28 H16         -2.1430     3.0530     0.0070 ha         1 AVE       0.115000
     29 H19         -4.9830    -1.0100    -0.4210 ha         1 AVE       0.153000
     30 H6           7.1920    -0.2160    -0.8780 ha         1 AVE       0.150000
     31 HN12         1.4920    -0.1000    -0.1560 hn         1 AVE       0.314500
     32 HN14        -0.4500    -0.2890    -0.2250 hn         1 AVE       0.151000
     33 H17         -4.5700     3.2670    -0.0540 ha         1 AVE       0.141000
     34 C9           2.8390     1.3870     0.0280 c          1 AVE       0.633700
     35 Cl10         5.6460     2.1000    -1.2870 cl         1 AVE      -0.152000
     36 C24         -6.4690     1.2770    -0.2800 c          1 AVE       0.715600
@<TRIPOS>BOND
     1     1     2 ar  
     2     1    12 ar  
     3     1    13 1   
     4     2     3 ar  
     5     2    14 1   
     6     3    15 ar  
     7     3    27 1   
     8     4    16 1   
     9     4    17 2   
    10     4    18 1   
    11     5     6 ar  
    12     5     8 ar  
    13     5    18 1   
    14     6    19 ar  
    15     6    28 1   
    16     7     8 ar  
    17     7    20 ar  
    18     7    29 1   
    19     8    23 1   
    20     9    34 2   
    21    10    23 1   
    22    10    24 1   
    23    10    25 1   
    24    10    26 1   
    25    11    12 ar  
    26    11    15 ar  
    27    11    35 1   
    28    12    30 1   
    29    15    34 1   
    30    16    31 1   
    31    16    34 1   
    32    18    32 1   
    33    19    20 ar  
    34    19    33 1   
    35    20    36 1   
    36    21    36 1   
    37    22    36 1   
@<TRIPOS>SUBSTRUCTURE
     1 AVE         1 TEMP              0 ****  ****    0 ROOT
