@<TRIPOS>MOLECULE
AVF
   47    49     1     0     0
SMALL
abcg2


@<TRIPOS>ATOM
      1 C1           4.5340     2.7720    -0.3340 ca         1 AVF       0.162000
      2 C2           3.6620     2.3100    -1.3050 ca         1 AVF       0.135000
      3 C3           3.0080     1.1110    -1.1320 ca         1 AVF      -0.098000
      4 C11          0.3430    -2.0180    -0.1320 c          1 AVF       0.671100
      5 C13         -2.0940    -2.3930    -0.3050 ca         1 AVF       0.027000
      6 C14         -2.1150    -3.7760    -0.4660 ca         1 AVF      -0.188000
      7 C15         -3.3430    -4.4010    -0.5750 ca         1 AVF       0.182000
      8 C16         -4.5460    -3.7280    -0.5340 ca         1 AVF      -0.183000
      9 C24         -3.8540     0.5100    -1.1410 c6         1 AVF       0.173300
     10 C27         -3.5140     1.9840    -1.0040 c6         1 AVF      -0.054400
     11 C28         -3.8930     2.5190     0.3740 c6         1 AVF      -0.193700
     12 C29         -3.5810     4.0220     0.5320 c          1 AVF       0.721000
     13 O31         -3.7310     4.7340    -0.4820 o          1 AVF      -0.731500
     14 O30         -3.2310     4.4200     1.6620 o          1 AVF      -0.731500
     15 C26         -3.2600     1.6450     1.4520 c6         1 AVF      -0.054400
     16 C25         -3.6040     0.1780     1.2490 c6         1 AVF       0.173300
     17 N21         -3.2100    -0.2650    -0.0870 nh         1 AVF      -0.791400
     18 C18         -3.3020    -1.6710    -0.2580 ca         1 AVF       0.172000
     19 C17         -4.5050    -2.3490    -0.3700 ca         1 AVF      -0.084000
     20 F23         -3.3530    -5.7350    -0.7330 f          1 AVF      -0.188000
     21 N12         -0.9490    -1.6150    -0.1970 ns         1 AVF      -0.156000
     22 O19          0.7210    -3.1670    -0.1440 o          1 AVF      -0.575100
     23 N10          1.2130    -0.9270    -0.0540 ns         1 AVF      -0.488500
     24 O20          3.1980    -1.9910     0.3690 o          1 AVF      -0.506100
     25 C4           3.2320     0.3500     0.0130 ca         1 AVF      -0.145600
     26 F22          3.4670     3.0340    -2.4050 f          1 AVF      -0.149000
     27 F9           5.1550     3.9330    -0.5170 f          1 AVF      -0.152000
     28 C6           4.7590     2.0440     0.8140 ca         1 AVF      -0.136000
     29 C5           4.1130     0.8280     0.9780 ca         1 AVF       0.167000
     30 CL8          4.3910    -0.0430     2.4390 cl         1 AVF      -0.156000
     31 H3           2.3380     0.7620    -1.9080 ha         1 AVF       0.148000
     32 H14         -1.2110    -4.3610    -0.5120 ha         1 AVF       0.161000
     33 H16         -5.4840    -4.2570    -0.6250 ha         1 AVF       0.125000
     34 H24         -4.9490     0.3870    -1.1190 h1         1 AVF       0.020700
     35 H24A        -3.5110     0.1300    -2.1060 h1         1 AVF       0.020700
     36 H27         -2.4400     2.1180    -1.1710 hc         1 AVF       0.048950
     37 H27A        -4.0300     2.5410    -1.7860 hc         1 AVF       0.048950
     38 H28         -4.9860     2.4190     0.4710 hc         1 AVF       0.026700
     39 H26         -2.1720     1.7610     1.4350 hc         1 AVF       0.048950
     40 H26A        -3.5970     1.9510     2.4420 hc         1 AVF       0.048950
     41 H25         -3.0790    -0.4350     1.9850 h1         1 AVF       0.020700
     42 H25A        -4.6820     0.0220     1.4130 h1         1 AVF       0.020700
     43 H17         -5.4340    -1.7930    -0.3300 ha         1 AVF       0.122000
     44 HN12        -1.1980    -0.6280    -0.1410 hn         1 AVF       0.201000
     45 HN10         0.8160    -0.0010    -0.1230 hn         1 AVF       0.331500
     46 H6           5.4310     2.4260     1.5700 ha         1 AVF       0.151000
     47 C7           2.5700    -0.9890     0.1370 c          1 AVF       0.637700
@<TRIPOS>BOND
     1     1     2 ar  
     2     1    27 1   
     3     1    28 ar  
     4     2     3 ar  
     5     2    26 1   
     6     3    25 ar  
     7     3    31 1   
     8     4    21 1   
     9     4    22 2   
    10     4    23 1   
    11     5     6 ar  
    12     5    18 ar  
    13     5    21 1   
    14     6     7 ar  
    15     6    32 1   
    16     7     8 ar  
    17     7    20 1   
    18     8    19 ar  
    19     8    33 1   
    20     9    10 1   
    21     9    17 1   
    22     9    34 1   
    23     9    35 1   
    24    10    11 1   
    25    10    36 1   
    26    10    37 1   
    27    11    12 1   
    28    11    15 1   
    29    11    38 1   
    30    12    13 1   
    31    12    14 1   
    32    15    16 1   
    33    15    39 1   
    34    15    40 1   
    35    16    17 1   
    36    16    41 1   
    37    16    42 1   
    38    17    18 1   
    39    18    19 ar  
    40    19    43 1   
    41    21    44 1   
    42    23    45 1   
    43    23    47 1   
    44    24    47 2   
    45    25    29 ar  
    46    25    47 1   
    47    28    29 ar  
    48    28    46 1   
    49    29    30 1   
@<TRIPOS>SUBSTRUCTURE
     1 AVF         1 TEMP              0 ****  ****    0 ROOT
