@<TRIPOS>MOLECULE
AVF
   47    49     1     0     0
SMALL
No Charge or Current Charge


@<TRIPOS>ATOM
      1 C1           4.1000     3.1070    -0.0340 ca         1 AVF       0.162000
      2 C2           2.8620     2.8460    -0.6400 ca         1 AVF       0.135000
      3 C3           2.3540     1.5370    -0.6710 ca         1 AVF      -0.098000
      4 C11          0.3370    -2.1190    -0.2280 c          1 AVF       0.671100
      5 C13         -2.2000    -2.5260    -0.1810 ca         1 AVF       0.027000
      6 C14         -2.2310    -3.9370    -0.2680 ca         1 AVF      -0.188000
      7 C15         -3.4580    -4.6130    -0.2950 ca         1 AVF       0.182000
      8 C16         -4.6640    -3.9030    -0.2340 ca         1 AVF      -0.183000
      9 C24         -3.2100     0.4080    -1.2800 c6         1 AVF       0.173300
     10 C27         -2.6020     1.7990    -0.9660 c6         1 AVF      -0.054400
     11 C28         -3.4590     2.5730     0.0760 c6         1 AVF      -0.193700
     12 C29         -2.8670     3.9610     0.4150 c          1 AVF       0.721000
     13 O31         -3.5380     4.9480     0.1510 o          1 AVF      -0.731500
     14 O30         -1.7610     4.0140     0.9320 o          1 AVF      -0.731500
     15 C26         -3.6650     1.6900     1.3390 c6         1 AVF      -0.054400
     16 C25         -4.2500     0.3020     0.9750 c6         1 AVF       0.173300
     17 N21         -3.4040    -0.3880    -0.0370 nh         1 AVF      -0.791400
     18 C18         -3.4190    -1.8040    -0.1190 ca         1 AVF       0.172000
     19 C17         -4.6440    -2.5000    -0.1450 ca         1 AVF      -0.084000
     20 F23         -3.4790    -5.9610    -0.3780 f          1 AVF      -0.188000
     21 N12         -0.9970    -1.7710    -0.1300 ns         1 AVF      -0.156000
     22 O19          0.7450    -3.2580    -0.3970 o          1 AVF      -0.575100
     23 N10          1.1610    -1.0290    -0.1230 ns         1 AVF      -0.488500
     24 O20          3.2430    -1.9290    -0.2880 o          1 AVF      -0.506100
     25 C4           3.0830     0.4620    -0.0950 ca         1 AVF      -0.145600
     26 F22          2.1540     3.8500    -1.2070 f          1 AVF      -0.149000
     27 F9           4.5950     4.3660     0.0010 f          1 AVF      -0.152000
     28 C6           4.8330     2.0600     0.5410 ca         1 AVF      -0.136000
     29 C5           4.3370     0.7450     0.5120 ca         1 AVF       0.167000
     30 Cl8          5.3080    -0.4900     1.3160 cl         1 AVF      -0.156000
     31 H3           1.4060     1.3700    -1.1780 ha         1 AVF       0.148000
     32 H14         -1.3210    -4.5250    -0.3100 ha         1 AVF       0.161000
     33 H16         -5.6110    -4.4370    -0.2570 ha         1 AVF       0.125000
     34 H24         -4.1760     0.5390    -1.7910 h1         1 AVF       0.020700
     35 H24A        -2.5420    -0.1250    -1.9730 h1         1 AVF       0.020700
     36 H27         -1.5790     1.6700    -0.5890 hc         1 AVF       0.048950
     37 H27A        -2.5220     2.3820    -1.8940 hc         1 AVF       0.048950
     38 H28         -4.4480     2.7450    -0.3720 hc         1 AVF       0.026700
     39 H26         -2.7080     1.5510     1.8610 hc         1 AVF       0.048950
     40 H26A        -4.3350     2.1960     2.0470 hc         1 AVF       0.048950
     41 H25         -4.3170    -0.3060     1.8890 h1         1 AVF       0.020700
     42 H25A        -5.2710     0.4290     0.5850 h1         1 AVF       0.020700
     43 H17         -5.5810    -1.9520    -0.1060 ha         1 AVF       0.122000
     44 HN12        -1.1750    -0.7850     0.0030 hn         1 AVF       0.201000
     45 HN10         0.6930    -0.1490     0.0240 hn         1 AVF       0.331500
     46 H6           5.7870     2.2690     1.0160 ha         1 AVF       0.151000
     47 C7           2.5300    -0.9460    -0.1550 c          1 AVF       0.637700
@<TRIPOS>BOND
     1     1     2 ar  
     2     1    27 1   
     3     1    28 ar  
     4     2     3 ar  
     5     2    26 1   
     6     3    25 ar  
     7     3    31 1   
     8     4    21 1   
     9     4    22 2   
    10     4    23 1   
    11     5     6 ar  
    12     5    18 ar  
    13     5    21 1   
    14     6     7 ar  
    15     6    32 1   
    16     7     8 ar  
    17     7    20 1   
    18     8    19 ar  
    19     8    33 1   
    20     9    10 1   
    21     9    17 1   
    22     9    34 1   
    23     9    35 1   
    24    10    11 1   
    25    10    36 1   
    26    10    37 1   
    27    11    12 1   
    28    11    15 1   
    29    11    38 1   
    30    12    13 1   
    31    12    14 1   
    32    15    16 1   
    33    15    39 1   
    34    15    40 1   
    35    16    17 1   
    36    16    41 1   
    37    16    42 1   
    38    17    18 1   
    39    18    19 ar  
    40    19    43 1   
    41    21    44 1   
    42    23    45 1   
    43    23    47 1   
    44    24    47 2   
    45    25    29 ar  
    46    25    47 1   
    47    28    29 ar  
    48    28    46 1   
    49    29    30 1   
@<TRIPOS>SUBSTRUCTURE
     1 AVF         1 TEMP              0 ****  ****    0 ROOT
