@<TRIPOS>MOLECULE
AVH
   24    24     1     0     0
SMALL
No Charge or Current Charge


@<TRIPOS>ATOM
      1 C1          -1.5870    -0.4790    -0.2340 c6         1 AVH       0.129300
      2 C2          -0.6630    -1.6580     0.1570 c6         1 AVH      -0.106400
      3 C3           0.7850    -1.4210    -0.3460 c6         1 AVH      -0.067400
      4 C4           1.3590    -0.0750     0.1740 c6         1 AVH      -0.031500
      5 C5           0.4240     1.1050    -0.2050 c6         1 AVH      -0.071400
      6 C6          -1.0170     0.8670     0.3140 c6         1 AVH       0.181300
      7 C7           2.7640     0.1560    -0.3640 c2         1 AVH      -0.215200
      8 C8           3.8470     0.2890     0.4170 c2         1 AVH      -0.314000
      9 O2          -1.8740     1.9490    -0.0680 oh         1 AVH      -0.662000
     10 H1          -1.6150    -0.4190    -1.3330 h1         1 AVH       0.040700
     11 H3          -0.6570    -1.7850     1.2490 hc         1 AVH       0.047700
     12 H4          -1.0480    -2.5970    -0.2650 hc         1 AVH       0.047700
     13 H5           1.4290    -2.2500    -0.0210 hc         1 AVH       0.044700
     14 H6           0.7970    -1.4320    -1.4450 hc         1 AVH       0.044700
     15 H7           1.4080    -0.1300     1.2720 hc         1 AVH       0.052700
     16 H8           0.8180     2.0390     0.2160 hc         1 AVH       0.056700
     17 H9           0.4080     1.2340    -1.2960 hc         1 AVH       0.056700
     18 H10         -0.9780     0.8000     1.4120 h1         1 AVH       0.039700
     19 H11          2.8590     0.2120    -1.4510 ha         1 AVH       0.167000
     20 H12          3.7860     0.2380     1.5060 ha         1 AVH       0.162500
     21 H13          4.8390     0.4530    -0.0080 ha         1 AVH       0.162500
     22 H14         -2.7830     1.5790     0.0160 ho         1 AVH       0.458000
     23 O1          -2.9150    -0.7030     0.2680 oh         1 AVH      -0.671000
     24 H2          -3.2110    -1.5710    -0.0870 ho         1 AVH       0.448000
@<TRIPOS>BOND
     1     1     2 1   
     2     1     6 1   
     3     1    10 1   
     4     1    23 1   
     5     2     3 1   
     6     2    11 1   
     7     2    12 1   
     8     3     4 1   
     9     3    13 1   
    10     3    14 1   
    11     4     5 1   
    12     4     7 1   
    13     4    15 1   
    14     5     6 1   
    15     5    16 1   
    16     5    17 1   
    17     6     9 1   
    18     6    18 1   
    19     7     8 2   
    20     7    19 1   
    21     8    20 1   
    22     8    21 1   
    23     9    22 1   
    24    23    24 1   
@<TRIPOS>SUBSTRUCTURE
     1 AVH         1 TEMP              0 ****  ****    0 ROOT
