@<TRIPOS>MOLECULE
AVH
   24    24     1     0     0
SMALL
bcc


@<TRIPOS>ATOM
      1 C1          -1.5470    -0.5200    -0.2460 c6         1 AVH       0.106100
      2 C2          -0.6250    -1.6590     0.1690 c6         1 AVH      -0.106400
      3 C3           0.8010    -1.4170    -0.3090 c6         1 AVH      -0.067400
      4 C4           1.3450    -0.0770     0.1980 c6         1 AVH      -0.031500
      5 C5           0.3940     1.0580    -0.1910 c6         1 AVH      -0.071400
      6 C6          -1.0260     0.8060     0.2920 c6         1 AVH       0.158100
      7 C7           2.7180     0.1740    -0.3450 c2         1 AVH      -0.165200
      8 C8           3.8210     0.2910     0.3830 c2         1 AVH      -0.214000
      9 O2          -1.8260     1.8930    -0.1210 oh         1 AVH      -0.599800
     10 H1          -1.5580    -0.4580    -1.3460 h1         1 AVH       0.040700
     11 H3          -0.6410    -1.7560     1.2600 hc         1 AVH       0.047700
     12 H4          -1.0020    -2.6030    -0.2350 hc         1 AVH       0.047700
     13 H5           1.4490    -2.2300     0.0250 hc         1 AVH       0.044700
     14 H6           0.8300    -1.4260    -1.4050 hc         1 AVH       0.044700
     15 H7           1.4070    -0.1210     1.2920 hc         1 AVH       0.052700
     16 H8           0.7570     2.0030     0.2220 hc         1 AVH       0.056700
     17 H9           0.3900     1.1710    -1.2820 hc         1 AVH       0.056700
     18 H10         -1.0120     0.7340     1.3930 h1         1 AVH       0.039700
     19 H11          2.7880     0.2570    -1.4280 ha         1 AVH       0.117000
     20 H12          3.8000     0.2160     1.4640 ha         1 AVH       0.112500
     21 H13          4.7870     0.4640    -0.0740 ha         1 AVH       0.112500
     22 H14         -2.7360     1.6980     0.1260 ho         1 AVH       0.419000
     23 O1          -2.8610    -0.6820     0.2510 oh         1 AVH      -0.608800
     24 H2          -3.2770    -1.4140    -0.2140 ho         1 AVH       0.409000
@<TRIPOS>BOND
     1     1     2 1   
     2     1     6 1   
     3     1    10 1   
     4     1    23 1   
     5     2     3 1   
     6     2    11 1   
     7     2    12 1   
     8     3     4 1   
     9     3    13 1   
    10     3    14 1   
    11     4     5 1   
    12     4     7 1   
    13     4    15 1   
    14     5     6 1   
    15     5    16 1   
    16     5    17 1   
    17     6     9 1   
    18     6    18 1   
    19     7     8 2   
    20     7    19 1   
    21     8    20 1   
    22     8    21 1   
    23     9    22 1   
    24    23    24 1   
@<TRIPOS>SUBSTRUCTURE
     1 AVH         1 TEMP              0 ****  ****    0 ROOT
