@<TRIPOS>MOLECULE
AVI
   25    25     1     0     0
SMALL
bcc


@<TRIPOS>ATOM
      1 CAL          1.5550    -1.8370    -1.2510 c3         1 AVI       0.190100
      2 N            0.8170    -1.1560    -0.2190 n3         1 AVI      -0.747600
      3 CAM          0.9760    -1.7760     1.0740 c3         1 AVI       0.190100
      4 CA           0.9180     0.2880    -0.2820 c3         1 AVI       0.066500
      5 C            2.2970     0.9280     0.0250 c          1 AVI       0.905600
      6 OXT          2.3760     2.1570    -0.1900 o          1 AVI      -0.840800
      7 O            3.2130     0.1990     0.4520 o          1 AVI      -0.840800
      8 CB          -0.1650     0.9730     0.5690 c3         1 AVI      -0.087700
      9 CG          -1.5420     0.4910     0.2700 cc         1 AVI       0.369600
     10 ND1         -2.1350     0.7000    -0.9460 nc         1 AVI      -0.667000
     11 CE1         -3.3210     0.1490    -0.8680 cd         1 AVI       0.363400
     12 NE2         -3.5280    -0.4030     0.3410 na         1 AVI      -0.316900
     13 CD2         -2.4000    -0.1940     1.0850 cd         1 AVI      -0.291600
     14 HE2          1.2700    -2.8920    -1.2770 h1         1 AVI       0.012033
     15 HE3          1.3070    -1.4130    -2.2280 h1         1 AVI       0.012033
     16 HAL          2.6460    -1.7910    -1.1350 h1         1 AVI       0.012033
     17 HE4          2.0020    -1.7620     1.4600 h1         1 AVI       0.012033
     18 HAM          0.3320    -1.2970     1.8130 h1         1 AVI       0.012033
     19 HE5          0.6550    -2.8200     1.0130 h1         1 AVI       0.012033
     20 HA           0.6830     0.5510    -1.3220 h1         1 AVI       0.053700
     21 HB1          0.0400     0.8470     1.6350 hc         1 AVI       0.053200
     22 HB2         -0.0980     2.0450     0.3750 hc         1 AVI       0.053200
     23 HE1         -4.0650     0.1280    -1.6490 h5         1 AVI       0.034100
     24 HKL         -4.3610    -0.8840     0.6400 hn         1 AVI       0.279700
     25 HD2         -2.3030    -0.5430     2.0990 h4         1 AVI       0.163000
@<TRIPOS>BOND
     1     1     2 1   
     2     1    14 1   
     3     1    15 1   
     4     1    16 1   
     5     2     3 1   
     6     2     4 1   
     7     3    17 1   
     8     3    18 1   
     9     3    19 1   
    10     4     5 1   
    11     4     8 1   
    12     4    20 1   
    13     5     6 1   
    14     5     7 1   
    15     8     9 1   
    16     8    21 1   
    17     8    22 1   
    18     9    10 1   
    19     9    13 2   
    20    10    11 2   
    21    11    12 1   
    22    11    23 1   
    23    12    13 1   
    24    12    24 1   
    25    13    25 1   
@<TRIPOS>SUBSTRUCTURE
     1 AVI         1 TEMP              0 ****  ****    0 ROOT
