@<TRIPOS>MOLECULE
AVI
   25    25     1     0     0
SMALL
No Charge or Current Charge


@<TRIPOS>ATOM
      1 CAL          1.6160    -1.8980    -1.2790 c3         1 AVI       0.190100
      2 N            0.8220    -1.2710    -0.1990 n3         1 AVI      -0.747600
      3 CAM          1.1540    -1.8400     1.1290 c3         1 AVI       0.190100
      4 CA           0.8560     0.2430    -0.2570 c3         1 AVI       0.066500
      5 C            2.2620     0.9400    -0.0440 c          1 AVI       0.695000
      6 OXT          2.9120     1.2500    -1.0360 o          1 AVI      -0.735500
      7 O            2.6480     1.1810     1.0950 o          1 AVI      -0.735500
      8 CB          -0.2250     0.9150     0.6370 c3         1 AVI      -0.087700
      9 CG          -1.6330     0.5120     0.2960 cc         1 AVI       0.304300
     10 ND1         -2.3290     1.1390    -0.7020 nc         1 AVI      -0.667000
     11 CE1         -3.5270     0.5750    -0.7350 cd         1 AVI       0.363400
     12 NE2         -3.6190    -0.4010     0.2400 na         1 AVI      -0.316500
     13 CD2         -2.4040    -0.4390     0.9080 cd         1 AVI      -0.259000
     14 HE2          1.4730    -2.9870    -1.2810 h1         1 AVI       0.012033
     15 HE3          1.3060    -1.5150    -2.2600 h1         1 AVI       0.012033
     16 HAL          2.6870    -1.6920    -1.1490 h1         1 AVI       0.012033
     17 HE4          2.1830    -1.5890     1.4180 h1         1 AVI       0.012033
     18 HAM          0.4730    -1.4670     1.9050 h1         1 AVI       0.012033
     19 HE5          1.0640    -2.9340     1.1100 h1         1 AVI       0.012033
     20 HA           0.5750     0.5250    -1.2820 h1         1 AVI       0.053700
     21 HB1         -0.0270     0.7050     1.6940 hc         1 AVI       0.053200
     22 HB2         -0.1340     2.0020     0.5300 hc         1 AVI       0.053200
     23 HE1         -4.3470     0.8140    -1.4020 h5         1 AVI       0.034100
     24 HKL         -4.4360    -0.9730     0.4190 hn         1 AVI       0.330000
     25 HD2         -2.1800    -1.1090     1.7300 h4         1 AVI       0.145000
@<TRIPOS>BOND
     1     1     2 1   
     2     1    14 1   
     3     1    15 1   
     4     1    16 1   
     5     2     3 1   
     6     2     4 1   
     7     3    17 1   
     8     3    18 1   
     9     3    19 1   
    10     4     5 1   
    11     4     8 1   
    12     4    20 1   
    13     5     6 1   
    14     5     7 1   
    15     8     9 1   
    16     8    21 1   
    17     8    22 1   
    18     9    10 1   
    19     9    13 2   
    20    10    11 2   
    21    11    12 1   
    22    11    23 1   
    23    12    13 1   
    24    12    24 1   
    25    13    25 1   
@<TRIPOS>SUBSTRUCTURE
     1 AVI         1 TEMP              0 ****  ****    0 ROOT
