@<TRIPOS>MOLECULE
AVJ
   29    29     1     0     0
SMALL
No Charge or Current Charge


@<TRIPOS>ATOM
      1 CAA         48.7120    18.8390    24.9670 c3         1 AVJ       0.083233
      2 CAB         49.5980    18.5200    22.6660 c3         1 AVJ       0.083233
      3 CAC         48.9490    20.8080    23.4490 c3         1 AVJ       0.083233
      4 CAM         54.2690    21.2780    24.3800 cc         1 AVJ       0.281900
      5 CAP         52.0410    20.3200    23.4220 c3         1 AVJ       0.005900
      6 NAR         54.2240    19.1200    24.0300 na         1 AVJ      -0.312500
      7 NAT         55.4940    20.7930    24.7510 nc         1 AVJ      -0.671000
      8 CAX         51.1430    20.4080    25.7990 c          1 AVJ       0.709000
      9 CAY         53.4590    20.2700    23.9290 cd         1 AVJ      -0.211300
     10 CAZ         55.4570    19.4840    24.5370 cd         1 AVJ       0.406400
     11 CBC         51.0270    19.6920    24.4160 c3         1 AVJ      -0.034700
     12 NBE         49.5800    19.4730    23.8700 n4         1 AVJ      -0.491000
     13 HAA         48.6600    19.5170    25.8210 hx         1 AVJ       0.085478
     14 HAAA        47.7080    18.6630    24.5750 hx         1 AVJ       0.085478
     15 HAAB        49.1590    17.8920    25.2750 hx         1 AVJ       0.085478
     16 HAB         50.1590    18.9760    21.8490 hx         1 AVJ       0.085478
     17 HABA        50.0690    17.5800    22.9600 hx         1 AVJ       0.085478
     18 HABB        48.5720    18.3320    22.3420 hx         1 AVJ       0.085478
     19 HAC         49.5470    21.2540    22.6530 hx         1 AVJ       0.085478
     20 HACA        47.9340    20.6280    23.0900 hx         1 AVJ       0.085478
     21 HACB        48.9210    21.4790    24.3090 hx         1 AVJ       0.085478
     22 HAM         54.0460    22.3340    24.4630 h4         1 AVJ       0.047100
     23 HAP         51.7550    21.3590    23.2160 hc         1 AVJ       0.054200
     24 HAPA        51.9910    19.7950    22.4620 hc         1 AVJ       0.054200
     25 HNAR        53.9520    18.1760    23.7800 hn         1 AVJ       0.339000
     26 HAZ         56.2510    18.7670    24.7150 h5         1 AVJ       0.054100
     27 HBC         51.3950    18.6850    24.6180 hx         1 AVJ       0.069700
     28 OAL         51.3640    19.7120    26.7800 o          1 AVJ      -0.660000
     29 OAH         50.9290    21.6120    25.8580 o          1 AVJ      -0.660000
@<TRIPOS>BOND
     1     1    12 1   
     2     1    13 1   
     3     1    14 1   
     4     1    15 1   
     5     2    12 1   
     6     2    16 1   
     7     2    17 1   
     8     2    18 1   
     9     3    12 1   
    10     3    19 1   
    11     3    20 1   
    12     3    21 1   
    13     4     7 1   
    14     4     9 2   
    15     4    22 1   
    16     5     9 1   
    17     5    11 1   
    18     5    23 1   
    19     5    24 1   
    20     6     9 1   
    21     6    10 1   
    22     6    25 1   
    23     7    10 2   
    24     8    11 1   
    25     8    28 1   
    26     8    29 1   
    27    10    26 1   
    28    11    12 1   
    29    11    27 1   
@<TRIPOS>SUBSTRUCTURE
     1 AVJ         1 TEMP              0 ****  ****    0 ROOT
