@<TRIPOS>MOLECULE
AVJ
   29    29     1     0     0
SMALL
abcg2


@<TRIPOS>ATOM
      1 CAA         48.7430    18.9490    24.9570 c3         1 AVJ       0.083233
      2 CAB         49.6810    18.4550    22.7770 c3         1 AVJ       0.083233
      3 CAC         49.0570    20.7500    23.3390 c3         1 AVJ       0.083233
      4 CAM         54.2500    21.2600    24.4880 cc         1 AVJ       0.281900
      5 CAP         51.9830    20.4220    23.4980 c3         1 AVJ       0.005900
      6 NAR         54.1380    19.1680    23.8940 na         1 AVJ      -0.312500
      7 NAT         55.4780    20.6910    24.7630 nc         1 AVJ      -0.671000
      8 CAX         51.0400    20.3490    25.8530 c          1 AVJ       0.709000
      9 CAY         53.4010    20.3310    23.9450 cd         1 AVJ      -0.211300
     10 CAZ         55.3720    19.4310    24.3930 cd         1 AVJ       0.406400
     11 CBC         51.0560    19.6580    24.4530 c3         1 AVJ      -0.034700
     12 NBE         49.6410    19.4760    23.8770 n4         1 AVJ      -0.491000
     13 HAA         48.6130    19.7180    25.7120 hx         1 AVJ       0.085478
     14 HAAA        47.7860    18.6990    24.5090 hx         1 AVJ       0.085478
     15 HAAB        49.2020    18.0630    25.3870 hx         1 AVJ       0.085478
     16 HAB         50.3340    18.8030    21.9840 hx         1 AVJ       0.085478
     17 HABA        50.0480    17.5190    23.1880 hx         1 AVJ       0.085478
     18 HABB        48.6710    18.3310    22.3950 hx         1 AVJ       0.085478
     19 HAC         49.6180    21.0550    22.4620 hx         1 AVJ       0.085478
     20 HACA        48.0250    20.5480    23.0630 hx         1 AVJ       0.085478
     21 HACB        49.1180    21.5030    24.1170 hx         1 AVJ       0.085478
     22 HAM         54.0410    22.2970    24.6930 h4         1 AVJ       0.047100
     23 HAP         51.6990    21.4730    23.4810 hc         1 AVJ       0.054200
     24 HAPA        51.8980    20.0360    22.4800 hc         1 AVJ       0.054200
     25 HNAR        53.8180    18.2780    23.5430 hn         1 AVJ       0.339000
     26 HAZ         56.1420    18.6790    24.4580 h5         1 AVJ       0.054100
     27 HBC         51.4100    18.6390    24.5850 hx         1 AVJ       0.069700
     28 OAL         51.5550    19.6870    26.7790 o          1 AVJ      -0.660000
     29 OAH         50.5490    21.4990    25.9090 o          1 AVJ      -0.660000
@<TRIPOS>BOND
     1     1    12 1   
     2     1    13 1   
     3     1    14 1   
     4     1    15 1   
     5     2    12 1   
     6     2    16 1   
     7     2    17 1   
     8     2    18 1   
     9     3    12 1   
    10     3    19 1   
    11     3    20 1   
    12     3    21 1   
    13     4     7 1   
    14     4     9 2   
    15     4    22 1   
    16     5     9 1   
    17     5    11 1   
    18     5    23 1   
    19     5    24 1   
    20     6     9 1   
    21     6    10 1   
    22     6    25 1   
    23     7    10 2   
    24     8    11 1   
    25     8    28 1   
    26     8    29 1   
    27    10    26 1   
    28    11    12 1   
    29    11    27 1   
@<TRIPOS>SUBSTRUCTURE
     1 AVJ         1 TEMP              0 ****  ****    0 ROOT
