@<TRIPOS>MOLECULE
AVK
   40    42     1     0     0
SMALL
No Charge or Current Charge


@<TRIPOS>ATOM
      1 Cl          -2.8030    -2.2260     0.7950 cl         1 AVK      -0.200000
      2 C           -2.0580    -0.8660    -0.0490 ca         1 AVK       0.126000
      3 C11         -2.7780     0.3280    -0.3320 cp         1 AVK      -0.025000
      4 C12         -4.2200     0.5020     0.0190 cp         1 AVK      -0.041000
      5 C17         -5.2020    -0.4260    -0.4080 ca         1 AVK      -0.089500
      6 C16         -6.5590    -0.2440    -0.0870 ca         1 AVK      -0.113500
      7 C15         -6.9590     0.8740     0.6620 ca         1 AVK      -0.104000
      8 C14         -6.0030     1.8130     1.0840 ca         1 AVK      -0.113500
      9 C13         -4.6470     1.6290     0.7620 ca         1 AVK      -0.089500
     10 C10         -2.0820     1.3880    -0.9620 ca         1 AVK      -0.098000
     11 C9          -0.7270     1.2650    -1.3140 ca         1 AVK      -0.108000
     12 C2          -0.0290     0.0750    -1.0380 ca         1 AVK      -0.080300
     13 C1          -0.7020    -0.9840    -0.4010 ca         1 AVK      -0.080000
     14 C3           1.4390    -0.0680    -1.4150 c3         1 AVK       0.205100
     15 N            2.2910     0.0750    -0.2220 n7         1 AVK      -0.862400
     16 C4           3.7420    -0.0220    -0.4720 c3         1 AVK       0.161800
     17 C5           4.5160     0.1120     0.8500 c3         1 AVK      -0.100700
     18 C6           6.0020     0.0310     0.6490 cc         1 AVK       0.396800
     19 N2           6.8060     1.1100     0.3770 na         1 AVK      -0.298500
     20 C8           8.1020     0.6520     0.2530 cc         1 AVK      -0.233000
     21 C7           8.0260    -0.7010     0.4580 cd         1 AVK       0.233900
     22 N1           6.7210    -1.0790     0.7030 nd         1 AVK      -0.675000
     23 H1          -4.9080    -1.2890    -1.0010 ha         1 AVK       0.116500
     24 H2          -7.2980    -0.9680    -0.4220 ha         1 AVK       0.113500
     25 H3          -8.0090     1.0160     0.9100 ha         1 AVK       0.112000
     26 H4          -6.3120     2.6820     1.6610 ha         1 AVK       0.113500
     27 H5          -3.9170     2.3620     1.0960 ha         1 AVK       0.116500
     28 H6          -2.6060     2.3140    -1.1900 ha         1 AVK       0.120000
     29 H7          -0.2210     2.0950    -1.8010 ha         1 AVK       0.114000
     30 H8          -0.1670    -1.9010    -0.1690 ha         1 AVK       0.141000
     31 H9           1.5930    -1.0510    -1.8820 h1         1 AVK       0.040700
     32 H10          1.6960     0.6930    -2.1650 h1         1 AVK       0.040700
     33 H11          2.0940     0.9940     0.1930 hn         1 AVK       0.405000
     34 H13          3.9890    -0.9900    -0.9320 h1         1 AVK       0.046200
     35 H14          4.0690     0.7680    -1.1620 h1         1 AVK       0.046200
     36 H15          4.2640     1.0670     1.3260 hc         1 AVK       0.057200
     37 H16          4.1950    -0.6780     1.5390 hc         1 AVK       0.057200
     38 H17          6.4850     2.0680     0.2890 hn         1 AVK       0.348000
     39 H18          8.9510     1.2910     0.0380 h4         1 AVK       0.157000
     40 H19          8.8360    -1.4220     0.4440 h4         1 AVK       0.038100
@<TRIPOS>BOND
     1     1     2 1   
     2     2     3 ar  
     3     2    13 ar  
     4     3     4 1   
     5     3    10 ar  
     6     4     5 ar  
     7     4     9 ar  
     8     5     6 ar  
     9     5    23 1   
    10     6     7 ar  
    11     6    24 1   
    12     7     8 ar  
    13     7    25 1   
    14     8     9 ar  
    15     8    26 1   
    16     9    27 1   
    17    10    11 ar  
    18    10    28 1   
    19    11    12 ar  
    20    11    29 1   
    21    12    13 ar  
    22    12    14 1   
    23    13    30 1   
    24    14    15 1   
    25    14    31 1   
    26    14    32 1   
    27    15    16 1   
    28    15    33 1   
    29    16    17 1   
    30    16    34 1   
    31    16    35 1   
    32    17    18 1   
    33    17    36 1   
    34    17    37 1   
    35    18    19 1   
    36    18    22 2   
    37    19    20 1   
    38    19    38 1   
    39    20    21 2   
    40    20    39 1   
    41    21    22 1   
    42    21    40 1   
@<TRIPOS>SUBSTRUCTURE
     1 AVK         1 TEMP              0 ****  ****    0 ROOT
