@<TRIPOS>MOLECULE
AVK
   40    42     1     0     0
SMALL
abcg2


@<TRIPOS>ATOM
      1 CL          -2.5510    -1.8270     1.3000 cl         1 AVK      -0.200000
      2 C           -1.9280    -0.6610     0.1740 ca         1 AVK       0.126000
      3 C11         -2.7570     0.3440    -0.3260 cp         1 AVK      -0.025000
      4 C12         -4.1890     0.4660     0.0250 cp         1 AVK      -0.041000
      5 C17         -5.0970    -0.5480    -0.2790 ca         1 AVK      -0.089500
      6 C16         -6.4430    -0.4000     0.0200 ca         1 AVK      -0.113500
      7 C15         -6.9000     0.7610     0.6330 ca         1 AVK      -0.104000
      8 C14         -6.0040     1.7760     0.9370 ca         1 AVK      -0.113500
      9 C13         -4.6570     1.6300     0.6320 ca         1 AVK      -0.089500
     10 C10         -2.1760     1.2720    -1.1870 ca         1 AVK      -0.098000
     11 C9          -0.8380     1.1950    -1.5440 ca         1 AVK      -0.108000
     12 C2          -0.0310     0.1800    -1.0460 ca         1 AVK      -0.080300
     13 C1          -0.5900    -0.7450    -0.1690 ca         1 AVK      -0.080000
     14 C3           1.4260     0.0830    -1.4070 c3         1 AVK       0.205100
     15 N            2.2560     0.2450    -0.2280 n7         1 AVK      -0.862400
     16 C4           3.6680     0.0840    -0.5110 c3         1 AVK       0.161800
     17 C5           4.4880     0.2590     0.7610 c3         1 AVK      -0.100700
     18 C6           5.9420     0.0330     0.5260 cc         1 AVK       0.396800
     19 N2           6.9040     0.8720     0.9680 na         1 AVK      -0.298500
     20 C8           8.1160     0.3660     0.5940 cc         1 AVK      -0.233000
     21 C7           7.8240    -0.7850    -0.0770 cd         1 AVK       0.233900
     22 N1           6.4710    -0.9830    -0.1140 nd         1 AVK      -0.675000
     23 H1          -4.7530    -1.4510    -0.7670 ha         1 AVK       0.116500
     24 H2          -7.1380    -1.1910    -0.2300 ha         1 AVK       0.113500
     25 H3          -7.9500     0.8740     0.8680 ha         1 AVK       0.112000
     26 H4          -6.3510     2.6830     1.4140 ha         1 AVK       0.113500
     27 H5          -3.9610     2.4240     0.8740 ha         1 AVK       0.116500
     28 H6          -2.7920     2.0650    -1.5920 ha         1 AVK       0.120000
     29 H7          -0.4210     1.9330    -2.2180 ha         1 AVK       0.114000
     30 H8           0.0260    -1.5300     0.2500 ha         1 AVK       0.141000
     31 H9           1.6310    -0.9050    -1.8290 h1         1 AVK       0.040700
     32 H10          1.6530     0.8100    -2.2000 h1         1 AVK       0.040700
     33 H11          2.0950     1.1710     0.1530 hn         1 AVK       0.405000
     34 H13          3.8280    -0.9220    -0.9060 h1         1 AVK       0.046200
     35 H14          4.0350     0.7810    -1.2800 h1         1 AVK       0.046200
     36 H15          4.3370     1.2640     1.1630 hc         1 AVK       0.057200
     37 H16          4.1210    -0.4370     1.5210 hc         1 AVK       0.057200
     38 H17          6.7550     1.7240     1.4850 hn         1 AVK       0.348000
     39 H18          9.0450     0.8570     0.8270 h4         1 AVK       0.157000
     40 H19          8.5140    -1.4780    -0.5350 h4         1 AVK       0.038100
@<TRIPOS>BOND
     1     1     2 1   
     2     2     3 ar  
     3     2    13 ar  
     4     3     4 1   
     5     3    10 ar  
     6     4     5 ar  
     7     4     9 ar  
     8     5     6 ar  
     9     5    23 1   
    10     6     7 ar  
    11     6    24 1   
    12     7     8 ar  
    13     7    25 1   
    14     8     9 ar  
    15     8    26 1   
    16     9    27 1   
    17    10    11 ar  
    18    10    28 1   
    19    11    12 ar  
    20    11    29 1   
    21    12    13 ar  
    22    12    14 1   
    23    13    30 1   
    24    14    15 1   
    25    14    31 1   
    26    14    32 1   
    27    15    16 1   
    28    15    33 1   
    29    16    17 1   
    30    16    34 1   
    31    16    35 1   
    32    17    18 1   
    33    17    36 1   
    34    17    37 1   
    35    18    19 1   
    36    18    22 2   
    37    19    20 1   
    38    19    38 1   
    39    20    21 2   
    40    20    39 1   
    41    21    22 1   
    42    21    40 1   
@<TRIPOS>SUBSTRUCTURE
     1 AVK         1 TEMP              0 ****  ****    0 ROOT
