@<TRIPOS>MOLECULE
AVL
   35    36     1     0     0
SMALL
No Charge or Current Charge


@<TRIPOS>ATOM
      1 CAA         -2.3610    -2.5460    -1.8320 c3         1 AVL      -0.081600
      2 CAB         -2.1870    -1.4880    -0.7130 c3         1 AVL      -0.153700
      3 CAC         -3.3050    -1.6070     0.3540 c3         1 AVL      -0.081600
      4 CAD         -0.7820    -1.5730    -0.0640 c          1 AVL       0.624300
      5 OAE         -0.4180    -2.6660     0.3490 o          1 AVL      -0.563100
      6 CAF          0.1300    -0.3910     0.0430 cc         1 AVL      -0.399800
      7 CAG          1.4870    -0.4660     0.2520 cd         1 AVL      -0.028000
      8 CAH          2.3540    -1.5970     0.3920 cd         1 AVL      -0.093000
      9 CAI          3.6870    -1.2880     0.5620 cc         1 AVL      -0.086000
     10 CAJ          4.1300     0.0860     0.5820 cc         1 AVL      -0.159000
     11 CAK          3.2710     1.1720     0.4310 cd         1 AVL      -0.078000
     12 NAL          1.9270     0.8360     0.2590 na         1 AVL       0.325400
     13 NAM          0.9580     1.7840     0.0920 nd         1 AVL      -0.595100
     14 CAN         -0.1320     1.0280    -0.0190 cc         1 AVL       0.441600
     15 CAO         -1.4880     1.7160    -0.1030 c3         1 AVL      -0.078000
     16 CAQ         -1.6280     2.8900     0.9010 c3         1 AVL      -0.085100
     17 CAP         -1.8020     2.1960    -1.5430 c3         1 AVL      -0.085100
     18 H1          -3.3300    -2.4250    -2.3320 hc         1 AVL       0.039700
     19 H2          -1.5740    -2.4390    -2.5890 hc         1 AVL       0.039700
     20 H3          -2.3120    -3.5640    -1.4270 hc         1 AVL       0.039700
     21 H4          -2.2970    -0.5260    -1.2070 hc         1 AVL       0.057700
     22 H5          -3.3020    -2.6050     0.8100 hc         1 AVL       0.039700
     23 H6          -3.1680    -0.8720     1.1560 hc         1 AVL       0.039700
     24 H7          -4.2910    -1.4400    -0.0970 hc         1 AVL       0.039700
     25 H8           2.0160    -2.6260     0.3650 ha         1 AVL       0.161000
     26 H9           4.4230    -2.0780     0.6800 ha         1 AVL       0.126000
     27 H10          5.1920     0.2680     0.7190 ha         1 AVL       0.135000
     28 H11          3.5450     2.2190     0.4340 h4         1 AVL       0.161000
     29 H12         -2.2670     1.0220     0.2100 hc         1 AVL       0.058700
     30 H13         -1.4120     2.5520     1.9220 hc         1 AVL       0.040033
     31 H14         -0.9410     3.7100     0.6570 hc         1 AVL       0.040033
     32 H15         -2.6490     3.2910     0.8870 hc         1 AVL       0.040033
     33 H16         -1.6940     1.3810    -2.2670 hc         1 AVL       0.040033
     34 H17         -2.8270     2.5800    -1.6090 hc         1 AVL       0.040033
     35 H18         -1.1160     2.9990    -1.8410 hc         1 AVL       0.040033
@<TRIPOS>BOND
     1     1     2 1   
     2     1    18 1   
     3     1    19 1   
     4     1    20 1   
     5     2     3 1   
     6     2     4 1   
     7     2    21 1   
     8     3    22 1   
     9     3    23 1   
    10     3    24 1   
    11     4     5 2   
    12     4     6 1   
    13     6     7 2   
    14     6    14 1   
    15     7     8 1   
    16     7    12 1   
    17     8     9 2   
    18     8    25 1   
    19     9    10 1   
    20     9    26 1   
    21    10    11 2   
    22    10    27 1   
    23    11    12 1   
    24    11    28 1   
    25    12    13 1   
    26    13    14 2   
    27    14    15 1   
    28    15    16 1   
    29    15    17 1   
    30    15    29 1   
    31    16    30 1   
    32    16    31 1   
    33    16    32 1   
    34    17    33 1   
    35    17    34 1   
    36    17    35 1   
@<TRIPOS>SUBSTRUCTURE
     1 AVL         1 TEMP              0 ****  ****    0 ROOT
