@<TRIPOS>MOLECULE
AVL
   35    36     1     0     0
SMALL
abcg2


@<TRIPOS>ATOM
      1 CAA         -2.3880    -2.0310    -1.8420 c3         1 AVL      -0.081600
      2 CAB         -2.3040    -1.4400    -0.4310 c3         1 AVL      -0.153700
      3 CAC         -3.2590    -2.1500     0.5240 c3         1 AVL      -0.081600
      4 CAD         -0.8690    -1.5560     0.0510 c          1 AVL       0.624300
      5 OAE         -0.4380    -2.6660     0.3330 o          1 AVL      -0.563100
      6 CAF          0.0090    -0.3980     0.1220 cc         1 AVL      -0.399800
      7 CAG          1.4020    -0.5190     0.3170 cd         1 AVL      -0.028000
      8 CAH          2.3310    -1.5670     0.4690 cd         1 AVL      -0.093000
      9 CAI          3.6560    -1.2620     0.6220 cc         1 AVL      -0.086000
     10 CAJ          4.0940     0.0800     0.6320 cc         1 AVL      -0.159000
     11 CAK          3.1870     1.0810     0.4850 cd         1 AVL      -0.078000
     12 NAL          1.8800     0.7610     0.3330 na         1 AVL       0.325400
     13 NAM          0.9160     1.6790     0.1850 nd         1 AVL      -0.595100
     14 CAN         -0.2100     1.0070     0.0530 cc         1 AVL       0.441600
     15 CAO         -1.4740     1.7970    -0.1490 c3         1 AVL      -0.078000
     16 CAQ         -1.3970     3.1790     0.4940 c3         1 AVL      -0.085100
     17 CAP         -1.7880     1.9170    -1.6430 c3         1 AVL      -0.085100
     18 H1          -3.4010    -1.9210    -2.2310 hc         1 AVL       0.039700
     19 H2          -1.7100    -1.5270    -2.5340 hc         1 AVL       0.039700
     20 H3          -2.1390    -3.0930    -1.8380 hc         1 AVL       0.039700
     21 H4          -2.6000    -0.3970    -0.4980 hc         1 AVL       0.057700
     22 H5          -3.0310    -3.2130     0.5960 hc         1 AVL       0.039700
     23 H6          -3.2150    -1.7230     1.5270 hc         1 AVL       0.039700
     24 H7          -4.2850    -2.0490     0.1680 hc         1 AVL       0.039700
     25 H8           1.9890    -2.5880     0.4630 ha         1 AVL       0.161000
     26 H9           4.3790    -2.0580     0.7380 ha         1 AVL       0.126000
     27 H10          5.1390     0.3250     0.7540 ha         1 AVL       0.135000
     28 H11          3.4250     2.1340     0.4790 h4         1 AVL       0.161000
     29 H12         -2.2920     1.2640     0.3390 hc         1 AVL       0.058700
     30 H13         -1.1680     3.1150     1.5580 hc         1 AVL       0.040033
     31 H14         -0.6380     3.8030     0.0220 hc         1 AVL       0.040033
     32 H15         -2.3580     3.6830     0.3880 hc         1 AVL       0.040033
     33 H16         -1.8830     0.9440    -2.1260 hc         1 AVL       0.040033
     34 H17         -2.7250     2.4540    -1.7920 hc         1 AVL       0.040033
     35 H18         -0.9980     2.4670    -2.1560 hc         1 AVL       0.040033
@<TRIPOS>BOND
     1     1     2 1   
     2     1    18 1   
     3     1    19 1   
     4     1    20 1   
     5     2     3 1   
     6     2     4 1   
     7     2    21 1   
     8     3    22 1   
     9     3    23 1   
    10     3    24 1   
    11     4     5 2   
    12     4     6 1   
    13     6     7 2   
    14     6    14 1   
    15     7     8 1   
    16     7    12 1   
    17     8     9 2   
    18     8    25 1   
    19     9    10 1   
    20     9    26 1   
    21    10    11 2   
    22    10    27 1   
    23    11    12 1   
    24    11    28 1   
    25    12    13 1   
    26    13    14 2   
    27    14    15 1   
    28    15    16 1   
    29    15    17 1   
    30    15    29 1   
    31    16    30 1   
    32    16    31 1   
    33    16    32 1   
    34    17    33 1   
    35    17    34 1   
    36    17    35 1   
@<TRIPOS>SUBSTRUCTURE
     1 AVL         1 TEMP              0 ****  ****    0 ROOT
