@<TRIPOS>MOLECULE
AVM
   46    49     1     0     0
SMALL
bcc


@<TRIPOS>ATOM
      1 O2          -1.1530     4.4290     0.5160 o          1 AVM      -0.820300
      2 C3          -4.6540    -0.8990     0.3170 ca         1 AVM       0.063600
      3 C4          -7.0260    -0.9710    -0.4600 c          1 AVM       0.674100
      4 C5          -7.9800    -0.1220    -1.2620 c3         1 AVM      -0.185100
      5 C12          1.2510     1.7530     0.1060 ca         1 AVM      -0.071000
      6 C13          0.0400     2.4000     0.3150 ca         1 AVM      -0.144600
      7 C14         -0.0290     3.9250     0.3310 c          1 AVM       0.925200
      8 C15          2.6250    -0.3140    -0.1470 cp         1 AVM       0.011000
      9 C17          2.6760    -1.5180    -0.8970 ca         1 AVM      -0.111000
     10 C18          3.8610    -2.1540    -1.1340 ca         1 AVM      -0.129000
     11 C19          5.0720    -1.6250    -0.6330 ca         1 AVM      -0.156300
     12 C20          5.0370    -0.4240     0.1170 ca         1 AVM       0.402600
     13 C21          6.3270    -2.2330    -0.8460 ca         1 AVM      -0.080000
     14 C22          7.4460    -1.6480    -0.3240 ca         1 AVM      -0.267300
     15 C23          7.3010    -0.4520     0.4110 ca         1 AVM       0.405200
     16 O1           1.0450     4.5300     0.1550 o          1 AVM      -0.820300
     17 N           -5.8000    -0.4000    -0.3070 ns         1 AVM      -0.472100
     18 C           -2.2480    -1.7280     1.4720 ca         1 AVM      -0.153000
     19 O           -7.3320    -2.0550     0.0020 o          1 AVM      -0.594100
     20 C1          -3.4110    -2.4580     1.6520 ca         1 AVM      -0.115000
     21 C10          0.1710    -0.3810     0.2840 ca         1 AVM      -0.117000
     22 C11          1.3330     0.3620     0.0870 cp         1 AVM      -0.095000
     23 C16          3.7970     0.2100     0.3460 ca         1 AVM      -0.167300
     24 C2          -4.6150    -2.0630     1.0860 ca         1 AVM      -0.164000
     25 C6          -3.4820    -0.1610     0.1410 ca         1 AVM      -0.176000
     26 C7          -2.2770    -0.5600     0.7090 cp         1 AVM       0.027000
     27 C8          -1.0550     0.2440     0.4970 cp         1 AVM      -0.093000
     28 C9          -1.1060     1.6370     0.5070 ca         1 AVM      -0.074000
     29 N1           6.1580     0.1400     0.6290 nb         1 AVM      -0.651000
     30 H4          -7.5650     0.1100    -2.2440 hc         1 AVM       0.060367
     31 H5          -8.9240    -0.6430    -1.3950 hc         1 AVM       0.060367
     32 H6          -8.1720     0.8260    -0.7580 hc         1 AVM       0.060367
     33 H10          2.1380     2.3490    -0.0650 ha         1 AVM       0.155000
     34 H12          1.7630    -1.9280    -1.3090 ha         1 AVM       0.135000
     35 H13          3.8840    -3.0650    -1.7190 ha         1 AVM       0.122000
     36 H14          6.3900    -3.1510    -1.4180 ha         1 AVM       0.126000
     37 H15          8.4280    -2.0790    -0.4620 ha         1 AVM       0.129000
     38 H16          8.1830     0.0230     0.8290 h4         1 AVM       0.008100
     39 H3          -5.6720     0.4900    -0.7660 hn         1 AVM       0.317500
     40 H           -1.3280    -2.0520     1.9420 ha         1 AVM       0.134000
     41 H1          -3.3890    -3.3570     2.2550 ha         1 AVM       0.120000
     42 H9           0.2190    -1.4640     0.2730 ha         1 AVM       0.110000
     43 H11          3.7950     1.1170     0.9390 ha         1 AVM       0.165000
     44 H2          -5.5000    -2.6540     1.2500 ha         1 AVM       0.153000
     45 H7          -3.5070     0.7330    -0.4720 ha         1 AVM       0.140000
     46 H8          -2.0460     2.1420     0.6890 ha         1 AVM       0.151000
@<TRIPOS>BOND
     1     1     7 1   
     2     2    17 1   
     3     2    24 ar  
     4     2    25 ar  
     5     3     4 1   
     6     3    17 1   
     7     3    19 2   
     8     4    30 1   
     9     4    31 1   
    10     4    32 1   
    11     5     6 ar  
    12     5    22 ar  
    13     5    33 1   
    14     6     7 1   
    15     6    28 ar  
    16     7    16 1   
    17     8     9 ar  
    18     8    22 1   
    19     8    23 ar  
    20     9    10 ar  
    21     9    34 1   
    22    10    11 ar  
    23    10    35 1   
    24    11    12 ar  
    25    11    13 ar  
    26    12    23 ar  
    27    12    29 ar  
    28    13    14 ar  
    29    13    36 1   
    30    14    15 ar  
    31    14    37 1   
    32    15    29 ar  
    33    15    38 1   
    34    17    39 1   
    35    18    20 ar  
    36    18    26 ar  
    37    18    40 1   
    38    20    24 ar  
    39    20    41 1   
    40    21    22 ar  
    41    21    27 ar  
    42    21    42 1   
    43    23    43 1   
    44    24    44 1   
    45    25    26 ar  
    46    25    45 1   
    47    26    27 1   
    48    27    28 ar  
    49    28    46 1   
@<TRIPOS>SUBSTRUCTURE
     1 AVM         1 TEMP              0 ****  ****    0 ROOT
