@<TRIPOS>MOLECULE
AVM
   46    49     1     0     0
SMALL
No Charge or Current Charge


@<TRIPOS>ATOM
      1 O2          -1.1410     4.4740     0.3890 o          1 AVM      -0.715000
      2 C3          -4.7240    -0.9420     0.2700 ca         1 AVM      -0.029000
      3 C4          -7.2300    -0.9250    -0.3240 c          1 AVM       0.607100
      4 C5          -8.2100    -0.0310    -1.0790 c3         1 AVM      -0.185100
      5 C12          1.2750     1.7790     0.0420 ca         1 AVM      -0.053000
      6 C13          0.0370     2.4310     0.2360 ca         1 AVM      -0.144600
      7 C14         -0.0470     3.9480     0.2440 c          1 AVM       0.714600
      8 C15          2.6950    -0.3140    -0.1810 cp         1 AVM       0.011000
      9 C17          2.7870    -1.5130    -0.9280 ca         1 AVM      -0.093000
     10 C18          4.0220    -2.1500    -1.1260 ca         1 AVM      -0.111000
     11 C19          5.1930    -1.5980    -0.5770 ca         1 AVM      -0.091000
     12 C20          5.1380    -0.3990     0.1770 ca         1 AVM       0.272000
     13 C21          6.4310    -2.2340    -0.7730 ca         1 AVM      -0.062000
     14 C22          7.5740    -1.6500    -0.2070 ca         1 AVM      -0.184000
     15 C23          7.4400    -0.4630     0.5290 ca         1 AVM       0.339900
     16 O1           0.9840     4.5920     0.1060 o          1 AVM      -0.715000
     17 N           -5.9270    -0.4430    -0.3050 ns         1 AVM      -0.146000
     18 C           -2.2640    -1.8080     1.3450 ca         1 AVM      -0.135000
     19 O           -7.5980    -1.9670     0.2050 o          1 AVM      -0.594100
     20 C1          -3.4240    -2.5760     1.5340 ca         1 AVM      -0.097000
     21 C10          0.1920    -0.3840     0.2190 ca         1 AVM      -0.099000
     22 C11          1.3770     0.3660     0.0300 cp         1 AVM      -0.095000
     23 C16          3.8900     0.2230     0.3610 ca         1 AVM      -0.084000
     24 C2          -4.6490    -2.1470     1.0000 ca         1 AVM      -0.146000
     25 C6          -3.5530    -0.1810     0.0900 ca         1 AVM      -0.158000
     26 C7          -2.3040    -0.5930     0.6190 cp         1 AVM       0.027000
     27 C8          -1.0680     0.2290     0.4170 cp         1 AVM      -0.093000
     28 C9          -1.1220     1.6440     0.4210 ca         1 AVM      -0.056000
     29 N1           6.2510     0.1540     0.7200 nb         1 AVM      -0.651000
     30 H4          -7.8350     0.1300    -2.0970 hc         1 AVM       0.060367
     31 H5          -9.2300    -0.4290    -1.0830 hc         1 AVM       0.060367
     32 H6          -8.1700     0.9800    -0.6560 hc         1 AVM       0.060367
     33 H10          2.1720     2.3730    -0.1180 ha         1 AVM       0.137000
     34 H12          1.8940    -1.9470    -1.3700 ha         1 AVM       0.117000
     35 H13          4.0660    -3.0680    -1.7070 ha         1 AVM       0.104000
     36 H14          6.5070    -3.1550    -1.3470 ha         1 AVM       0.108000
     37 H15          8.5520    -2.1070    -0.3320 ha         1 AVM       0.111000
     38 H16          8.3100     0.0120     0.9800 h4         1 AVM       0.008100
     39 H3          -5.8090     0.4350    -0.7950 hn         1 AVM       0.151000
     40 H           -1.3280    -2.1520     1.7780 ha         1 AVM       0.116000
     41 H1          -3.3720    -3.5040     2.0980 ha         1 AVM       0.102000
     42 H9           0.2520    -1.4690     0.2130 ha         1 AVM       0.092000
     43 H11          3.8490     1.1330     0.9510 ha         1 AVM       0.147000
     44 H2          -5.5250    -2.7660     1.1660 ha         1 AVM       0.135000
     45 H7          -3.6070     0.7400    -0.4840 ha         1 AVM       0.122000
     46 H8          -2.0790     2.1340     0.5870 ha         1 AVM       0.133000
@<TRIPOS>BOND
     1     1     7 1   
     2     2    17 1   
     3     2    24 ar  
     4     2    25 ar  
     5     3     4 1   
     6     3    17 1   
     7     3    19 2   
     8     4    30 1   
     9     4    31 1   
    10     4    32 1   
    11     5     6 ar  
    12     5    22 ar  
    13     5    33 1   
    14     6     7 1   
    15     6    28 ar  
    16     7    16 1   
    17     8     9 ar  
    18     8    22 1   
    19     8    23 ar  
    20     9    10 ar  
    21     9    34 1   
    22    10    11 ar  
    23    10    35 1   
    24    11    12 ar  
    25    11    13 ar  
    26    12    23 ar  
    27    12    29 ar  
    28    13    14 ar  
    29    13    36 1   
    30    14    15 ar  
    31    14    37 1   
    32    15    29 ar  
    33    15    38 1   
    34    17    39 1   
    35    18    20 ar  
    36    18    26 ar  
    37    18    40 1   
    38    20    24 ar  
    39    20    41 1   
    40    21    22 ar  
    41    21    27 ar  
    42    21    42 1   
    43    23    43 1   
    44    24    44 1   
    45    25    26 ar  
    46    25    45 1   
    47    26    27 1   
    48    27    28 ar  
    49    28    46 1   
@<TRIPOS>SUBSTRUCTURE
     1 AVM         1 TEMP              0 ****  ****    0 ROOT
