@<TRIPOS>MOLECULE
AVN
   17    17     1     0     0
SMALL
No Charge or Current Charge


@<TRIPOS>ATOM
      1 C1           2.7210    -0.3290     0.0080 c          1 AVN       0.697000
      2 O1           3.2010    -1.0590     0.8650 o          1 AVN      -0.718000
      3 O2           3.2070    -0.2000    -1.1090 o          1 AVN      -0.718000
      4 C2           1.5300     0.6210     0.4190 c3         1 AVN       0.006500
      5 N1           1.8340     2.1090     0.3920 n8         1 AVN      -1.007200
      6 C3           0.2660     0.2830    -0.4260 c5         1 AVN       0.153300
      7 O3          -0.0560    -1.1320    -0.3060 os         1 AVN      -0.222000
      8 N2          -1.4590    -1.2940    -0.1900 n2         1 AVN      -0.269700
      9 C4          -2.0000    -0.1410    -0.0720 c2         1 AVN       0.325300
     10 C5          -1.0420     1.0030    -0.0050 c5         1 AVN      -0.153700
     11 Cl1         -3.7250     0.0470     0.0760 cl         1 AVN      -0.130300
     12 H2           1.2850     0.3710     1.4610 h1         1 AVN       0.050700
     13 HN11         2.6310     2.3010     1.0130 hn         1 AVN       0.389500
     14 HN12         2.2030     2.3520    -0.5370 hn         1 AVN       0.389500
     15 H3           0.4780     0.4820    -1.4860 h1         1 AVN       0.057700
     16 H51         -0.9940     1.4110     1.0100 hc         1 AVN       0.074200
     17 H52         -1.3150     1.8110    -0.6910 hc         1 AVN       0.074200
@<TRIPOS>BOND
     1     1     2 1   
     2     1     3 1   
     3     1     4 1   
     4     4     5 1   
     5     4     6 1   
     6     4    12 1   
     7     5    13 1   
     8     5    14 1   
     9     6     7 1   
    10     6    10 1   
    11     6    15 1   
    12     7     8 1   
    13     8     9 2   
    14     9    10 1   
    15     9    11 1   
    16    10    16 1   
    17    10    17 1   
@<TRIPOS>SUBSTRUCTURE
     1 AVN         1 TEMP              0 ****  ****    0 ROOT
