@<TRIPOS>MOLECULE
AVN
   17    17     1     0     0
SMALL
bcc


@<TRIPOS>ATOM
      1 C1           2.7860    -0.2180    -0.0330 c          1 AVN       0.907600
      2 O1           2.6750    -1.4590    -0.0020 o          1 AVN      -0.823300
      3 O2           3.7930     0.4330    -0.3670 o          1 AVN      -0.823300
      4 C2           1.5350     0.5930     0.4060 c3         1 AVN       0.006500
      5 N1           1.6580     2.0360     0.2810 n8         1 AVN      -0.896800
      6 C3           0.2870     0.1660    -0.3650 c5         1 AVN       0.130100
      7 O3          -0.1130    -1.1860    -0.0260 os         1 AVN      -0.100300
      8 N2          -1.4760    -1.2570     0.0720 n2         1 AVN      -0.368200
      9 C4          -1.9530    -0.0880     0.0300 c2         1 AVN       0.325300
     10 C5          -0.9530     1.0070    -0.0640 c5         1 AVN      -0.153700
     11 CL1         -3.6350     0.1780     0.1630 cl         1 AVN      -0.130300
     12 H2           1.3450     0.3710     1.4630 h1         1 AVN       0.050700
     13 HN11         2.3870     2.3480     0.9100 hn         1 AVN       0.334300
     14 HN12         2.0190     2.2490    -0.6410 hn         1 AVN       0.334300
     15 H3           0.4870     0.1850    -1.4440 h1         1 AVN       0.057700
     16 H51         -0.8930     1.5490     0.8840 hc         1 AVN       0.074200
     17 H52         -1.1830     1.7290    -0.8440 hc         1 AVN       0.074200
@<TRIPOS>BOND
     1     1     2 1   
     2     1     3 1   
     3     1     4 1   
     4     4     5 1   
     5     4     6 1   
     6     4    12 1   
     7     5    13 1   
     8     5    14 1   
     9     6     7 1   
    10     6    10 1   
    11     6    15 1   
    12     7     8 1   
    13     8     9 2   
    14     9    10 1   
    15     9    11 1   
    16    10    16 1   
    17    10    17 1   
@<TRIPOS>SUBSTRUCTURE
     1 AVN         1 TEMP              0 ****  ****    0 ROOT
