@<TRIPOS>MOLECULE
AVO
   31    32     1     0     0
SMALL
No Charge or Current Charge


@<TRIPOS>ATOM
      1 CAG         -1.8050    -1.2720     0.7000 c5         1 AVO       0.098600
      2 CAE         -3.2430    -1.4130     0.1240 c5         1 AVO      -0.102400
      3 CAF         -3.1970    -0.5550    -1.1660 c5         1 AVO      -0.102400
      4 CAH         -2.4570     0.6870    -0.6360 c5         1 AVO       0.098600
      5 N           -1.2640     0.0190     0.0500 nx         1 AVO      -0.659000
      6 CA          -0.4160     0.9440     0.9610 c3         1 AVO      -0.062700
      7 C            0.0610     2.2750     0.3070 c          1 AVO       0.703000
      8 OXT         -0.3140     3.3220     0.8110 o          1 AVO      -0.656000
      9 O            0.7130     2.2060    -0.7270 o          1 AVO      -0.656000
     10 CB           0.7740     0.1860     1.6070 c3         1 AVO      -0.025100
     11 CG           1.5700    -0.6570     0.6380 cc         1 AVO      -0.110300
     12 CD2          1.8730    -2.0020     0.7230 cd         1 AVO      -0.181000
     13 NE2          2.6090    -2.3090    -0.4020 na         1 AVO      -0.120700
     14 CE1          2.7790    -1.2060    -1.1990 cc         1 AVO      -0.037300
     15 ND1          2.1260    -0.1720    -0.5500 na         1 AVO      -0.042000
     16 HE4         -1.8040    -1.1700     1.7890 hx         1 AVO       0.094450
     17 HAG         -1.1510    -2.1090     0.4390 hx         1 AVO       0.094450
     18 HAE         -3.5120    -2.4580    -0.0680 hc         1 AVO       0.086200
     19 HE2         -3.9790    -1.0160     0.8330 hc         1 AVO       0.086200
     20 HE3         -2.6400    -1.0490    -1.9720 hc         1 AVO       0.086200
     21 HAF         -4.1950    -0.3140    -1.5500 hc         1 AVO       0.086200
     22 HAH         -2.1250     1.3830    -1.4130 hx         1 AVO       0.094450
     23 HE5         -3.0400     1.2400     0.1060 hx         1 AVO       0.094450
     24 H           -0.6410    -0.2950    -0.7300 hn         1 AVO       0.522000
     25 HA          -1.0670     1.2730     1.7730 hx         1 AVO       0.111700
     26 HB2          1.4340     0.9020     2.1140 hc         1 AVO       0.098200
     27 HB1          0.3810    -0.4610     2.4010 hc         1 AVO       0.098200
     28 HD2          1.6230    -2.7340     1.4860 h4         1 AVO       0.199000
     29 H2           2.9780    -3.2340    -0.6140 hn         1 AVO       0.412000
     30 HE1          3.3060    -1.1550    -2.1480 h5         1 AVO       0.240000
     31 HD1          2.0260     0.7860    -0.8930 hn         1 AVO       0.449000
@<TRIPOS>BOND
     1     1     2 1   
     2     1     5 1   
     3     1    16 1   
     4     1    17 1   
     5     2     3 1   
     6     2    18 1   
     7     2    19 1   
     8     3     4 1   
     9     3    20 1   
    10     3    21 1   
    11     4     5 1   
    12     4    22 1   
    13     4    23 1   
    14     5     6 1   
    15     5    24 1   
    16     6     7 1   
    17     6    10 1   
    18     6    25 1   
    19     7     8 1   
    20     7     9 1   
    21    10    11 1   
    22    10    26 1   
    23    10    27 1   
    24    11    12 2   
    25    11    15 1   
    26    12    13 1   
    27    12    28 1   
    28    13    14 2   
    29    13    29 1   
    30    14    15 1   
    31    14    30 1   
    32    15    31 1   
@<TRIPOS>SUBSTRUCTURE
     1 AVO         1 TEMP              0 ****  ****    0 ROOT
