@<TRIPOS>MOLECULE
AVO
   31    32     1     0     0
SMALL
bcc


@<TRIPOS>ATOM
      1 CAG         -1.8940    -1.2020     0.6960 c5         1 AVO       0.126800
      2 CAE         -3.1740    -1.6150    -0.0260 c5         1 AVO      -0.102400
      3 CAF         -3.6870    -0.3390    -0.7230 c5         1 AVO      -0.102400
      4 CAH         -2.7330     0.7610    -0.2840 c5         1 AVO       0.126800
      5 N           -1.4530     0.0380    -0.0050 nx         1 AVO      -0.688400
      6 CA          -0.4300     0.9020     0.6560 c3         1 AVO      -0.034500
      7 C            0.2730     1.7510    -0.4390 c          1 AVO       0.913600
      8 OXT          1.0890     2.5800    -0.0090 o          1 AVO      -0.761300
      9 O           -0.0020     1.4640    -1.6150 o          1 AVO      -0.761300
     10 CB           0.6140     0.1200     1.4590 c3         1 AVO      -0.025100
     11 CG           1.5990    -0.6420     0.6440 cc         1 AVO      -0.059600
     12 CD2          1.7410    -1.9740     0.4240 cd         1 AVO      -0.148300
     13 NE2          2.8350    -2.1320    -0.3820 na         1 AVO      -0.121100
     14 CE1          3.3610    -0.9530    -0.6550 cc         1 AVO      -0.004600
     15 ND1          2.6280    -0.0410    -0.0430 na         1 AVO      -0.093100
     16 HE4         -2.0810    -0.9360     1.7350 hx         1 AVO       0.094450
     17 HAG         -1.1110    -1.9540     0.6550 hx         1 AVO       0.094450
     18 HAE         -2.9710    -2.3990    -0.7540 hc         1 AVO       0.086200
     19 HE2         -3.8900    -2.0140     0.6900 hc         1 AVO       0.086200
     20 HE3         -3.6620    -0.4540    -1.8060 hc         1 AVO       0.086200
     21 HAF         -4.7080    -0.0910    -0.4410 hc         1 AVO       0.086200
     22 HAH         -2.5610     1.5340    -1.0260 hx         1 AVO       0.094450
     23 HE5         -3.0450     1.2220     0.6520 hx         1 AVO       0.094450
     24 H           -1.0480    -0.1950    -0.9210 hn         1 AVO       0.466800
     25 HA          -0.9680     1.5430     1.3570 hx         1 AVO       0.111700
     26 HB2          1.1460     0.8570     2.0630 hc         1 AVO       0.098200
     27 HB1          0.1420    -0.5560     2.1690 hc         1 AVO       0.098200
     28 HD2          1.1680    -2.8110     0.7830 h4         1 AVO       0.217000
     29 H2           3.2000    -3.0140    -0.7130 hn         1 AVO       0.361700
     30 HE1          4.2300    -0.7680    -1.2630 h5         1 AVO       0.258000
     31 HD1          2.7970     0.9590    -0.0820 hn         1 AVO       0.398700
@<TRIPOS>BOND
     1     1     2 1   
     2     1     5 1   
     3     1    16 1   
     4     1    17 1   
     5     2     3 1   
     6     2    18 1   
     7     2    19 1   
     8     3     4 1   
     9     3    20 1   
    10     3    21 1   
    11     4     5 1   
    12     4    22 1   
    13     4    23 1   
    14     5     6 1   
    15     5    24 1   
    16     6     7 1   
    17     6    10 1   
    18     6    25 1   
    19     7     8 1   
    20     7     9 1   
    21    10    11 1   
    22    10    26 1   
    23    10    27 1   
    24    11    12 2   
    25    11    15 1   
    26    12    13 1   
    27    12    28 1   
    28    13    14 2   
    29    13    29 1   
    30    14    15 1   
    31    14    30 1   
    32    15    31 1   
@<TRIPOS>SUBSTRUCTURE
     1 AVO         1 TEMP              0 ****  ****    0 ROOT
