@<TRIPOS>MOLECULE
AVQ
   31    33     1     0     0
SMALL
No Charge or Current Charge


@<TRIPOS>ATOM
      1 ClD          2.2820    -2.8920     0.3040 cl         1 AVQ      -0.181000
      2 CAQ          3.2080    -1.4120     0.0520 ca         1 AVQ       0.130000
      3 CAF          4.5980    -1.4450     0.2640 ca         1 AVQ      -0.098000
      4 CAE          5.3700    -0.2850     0.0790 ca         1 AVQ      -0.089000
      5 CAO          4.7490     0.9090    -0.3180 ca         1 AVQ       0.116000
      6 ClC          5.7120     2.3630    -0.5470 cl         1 AVQ      -0.191000
      7 CAH          3.3610     0.9480    -0.5320 ca         1 AVQ      -0.082000
      8 CAR          2.5780    -0.2120    -0.3510 ca         1 AVQ      -0.067300
      9 CAI          1.0730    -0.1420    -0.5850 c3         1 AVQ       0.092900
     10 SAM          0.1800     0.1310     1.0090 ss         1 AVQ      -0.180200
     11 CAS         -1.4980     0.1510     0.4940 cc         1 AVQ       0.544200
     12 NAK         -1.9120    -0.0060    -0.8050 nc         1 AVQ      -0.401300
     13 NAL         -2.4020     0.3310     1.4500 nd         1 AVQ      -0.557100
     14 NAU         -3.5050     0.2790     0.6470 na         1 AVQ       0.061900
     15 CAT         -3.2100     0.0810    -0.6770 cd         1 AVQ       0.453500
     16 NAJ         -4.0600    -0.0220    -1.7570 nd         1 AVQ      -0.670000
     17 CAN         -5.3190     0.1030    -1.3410 cc         1 AVQ       0.450300
     18 CAA         -6.4100     0.0200    -2.3680 c3         1 AVQ      -0.154400
     19 CAG         -5.7350     0.3130     0.0260 cc         1 AVQ      -0.348000
     20 CAP         -4.8290     0.4080     1.0640 cd         1 AVQ       0.229100
     21 OAB         -5.1520     0.6030     2.3600 oh         1 AVQ      -0.481100
     22 HAF          5.0760    -2.3720     0.5740 ha         1 AVQ       0.135000
     23 HAE          6.4440    -0.3110     0.2440 ha         1 AVQ       0.135000
     24 HAH          2.8950     1.8820    -0.8360 ha         1 AVQ       0.137000
     25 HAI1         0.8380     0.6840    -1.2690 h1         1 AVQ       0.094200
     26 HAI2         0.7140    -1.0690    -1.0500 h1         1 AVQ       0.094200
     27 HAB         -6.1300     0.6610     2.4020 ho         1 AVQ       0.498000
     28 HAA1        -6.0080    -0.1400    -3.3760 hc         1 AVQ       0.062700
     29 HAA2        -7.0890    -0.8100    -2.1420 hc         1 AVQ       0.062700
     30 HAA3        -6.9960     0.9460    -2.3840 hc         1 AVQ       0.062700
     31 HAG         -6.7980     0.3970     0.2200 ha         1 AVQ       0.141000
@<TRIPOS>BOND
     1     1     2 1   
     2     2     3 ar  
     3     2     8 ar  
     4     3     4 ar  
     5     3    22 1   
     6     4     5 ar  
     7     4    23 1   
     8     5     6 1   
     9     5     7 ar  
    10     7     8 ar  
    11     7    24 1   
    12     8     9 1   
    13     9    10 1   
    14     9    25 1   
    15     9    26 1   
    16    10    11 1   
    17    11    12 1   
    18    11    13 2   
    19    12    15 2   
    20    13    14 1   
    21    14    15 1   
    22    14    20 1   
    23    15    16 1   
    24    16    17 2   
    25    17    18 1   
    26    17    19 1   
    27    18    28 1   
    28    18    29 1   
    29    18    30 1   
    30    19    20 2   
    31    19    31 1   
    32    20    21 1   
    33    21    27 1   
@<TRIPOS>SUBSTRUCTURE
     1 AVQ         1 TEMP              0 ****  ****    0 ROOT
