@<TRIPOS>MOLECULE
AVQ
   31    33     1     0     0
SMALL
abcg2


@<TRIPOS>ATOM
      1 CLD          2.2370    -2.8130     0.3610 cl         1 AVQ      -0.181000
      2 CAQ          3.1570    -1.3740     0.0890 ca         1 AVQ       0.130000
      3 CAF          4.5200    -1.4020     0.3380 ca         1 AVQ      -0.098000
      4 CAE          5.2840    -0.2640     0.1370 ca         1 AVQ      -0.089000
      5 CAO          4.6650     0.8910    -0.3140 ca         1 AVQ       0.116000
      6 CLC          5.6030     2.3220    -0.5660 cl         1 AVQ      -0.191000
      7 CAH          3.3040     0.9190    -0.5660 ca         1 AVQ      -0.082000
      8 CAR          2.5280    -0.2200    -0.3750 ca         1 AVQ      -0.067300
      9 CAI          1.0560    -0.1600    -0.6450 c3         1 AVQ       0.092900
     10 SAM          0.2270     0.1220     0.9540 ss         1 AVQ      -0.180200
     11 CAS         -1.4420     0.1310     0.4550 cc         1 AVQ       0.544200
     12 NAK         -1.8470    -0.0010    -0.8170 nc         1 AVQ      -0.401300
     13 NAL         -2.3850     0.2840     1.3640 nd         1 AVQ      -0.557100
     14 NAU         -3.4920     0.2480     0.6020 na         1 AVQ       0.061900
     15 CAT         -3.1650     0.0750    -0.7220 cd         1 AVQ       0.453500
     16 NAJ         -4.0770     0.0110    -1.6840 nd         1 AVQ      -0.670000
     17 CAN         -5.3380     0.1240    -1.3120 cc         1 AVQ       0.450300
     18 CAA         -6.3890     0.0580    -2.3720 c3         1 AVQ      -0.154400
     19 CAG         -5.7320     0.3010     0.0290 cc         1 AVQ      -0.348000
     20 CAP         -4.7740     0.3650     1.0080 cd         1 AVQ       0.229100
     21 OAB         -4.9390     0.5280     2.2970 oh         1 AVQ      -0.481100
     22 HAF          4.9910    -2.3080     0.6910 ha         1 AVQ       0.135000
     23 HAE          6.3470    -0.2860     0.3300 ha         1 AVQ       0.135000
     24 HAH          2.8340     1.8270    -0.9200 ha         1 AVQ       0.137000
     25 HAI1         0.8250     0.6630    -1.3180 h1         1 AVQ       0.094200
     26 HAI2         0.6840    -1.0830    -1.0860 h1         1 AVQ       0.094200
     27 HAB         -5.8760     0.6190     2.5180 ho         1 AVQ       0.498000
     28 HAA1        -5.9400    -0.0350    -3.3570 hc         1 AVQ       0.062700
     29 HAA2        -7.0490    -0.7940    -2.2050 hc         1 AVQ       0.062700
     30 HAA3        -7.0110     0.9540    -2.3510 hc         1 AVQ       0.062700
     31 HAG         -6.7780     0.3910     0.2880 ha         1 AVQ       0.141000
@<TRIPOS>BOND
     1     1     2 1   
     2     2     3 ar  
     3     2     8 ar  
     4     3     4 ar  
     5     3    22 1   
     6     4     5 ar  
     7     4    23 1   
     8     5     6 1   
     9     5     7 ar  
    10     7     8 ar  
    11     7    24 1   
    12     8     9 1   
    13     9    10 1   
    14     9    25 1   
    15     9    26 1   
    16    10    11 1   
    17    11    12 1   
    18    11    13 2   
    19    12    15 2   
    20    13    14 1   
    21    14    15 1   
    22    14    20 1   
    23    15    16 1   
    24    16    17 2   
    25    17    18 1   
    26    17    19 1   
    27    18    28 1   
    28    18    29 1   
    29    18    30 1   
    30    19    20 2   
    31    19    31 1   
    32    20    21 1   
    33    21    27 1   
@<TRIPOS>SUBSTRUCTURE
     1 AVQ         1 TEMP              0 ****  ****    0 ROOT
