@<TRIPOS>MOLECULE
AVR
   34    35     1     0     0
SMALL
No Charge or Current Charge


@<TRIPOS>ATOM
      1 C           -0.6760    -1.5680    -0.2980 c          1 AVR       0.630300
      2 N           -3.1400    -1.2920     0.5110 n8         1 AVR      -0.980200
      3 O           -0.2150    -2.7020    -0.2370 o          1 AVR      -0.549100
      4 N1           1.0060     1.7760     0.2470 nc         1 AVR      -0.593100
      5 C2          -0.0730     1.0330     0.0120 cd         1 AVR       0.439600
      6 C3           0.2130    -0.3830    -0.0360 cd         1 AVR      -0.398800
      7 C4           1.5690    -0.4700     0.2170 cc         1 AVR      -0.032000
      8 N5           1.9720     0.8310     0.3720 na         1 AVR       0.325400
      9 C6           3.3040     1.1660     0.6360 cc         1 AVR      -0.077000
     10 C7           4.1910     0.0910     0.7310 cd         1 AVR      -0.158000
     11 C8           3.7890    -1.2880     0.5700 cd         1 AVR      -0.085000
     12 C9           2.4700    -1.5720     0.3090 cc         1 AVR      -0.094000
     13 CA          -2.2070    -1.4050    -0.6600 c3         1 AVR       0.067500
     14 CB          -2.7240    -2.5480    -1.5650 c3         1 AVR      -0.130100
     15 C11         -1.5520     3.0060     0.7500 c3         1 AVR      -0.085100
     16 C12         -1.5900     2.1840    -1.6650 c3         1 AVR      -0.085100
     17 HN          -4.1110    -1.2760     0.1750 hn         1 AVR       0.400500
     18 HNA         -3.0950    -2.1560     1.0670 hn         1 AVR       0.400500
     19 H6           3.5490     2.2140     0.7450 h4         1 AVR       0.161000
     20 H7           5.2360     0.3030     0.9360 ha         1 AVR       0.135000
     21 H8           4.5170    -2.0890     0.6520 ha         1 AVR       0.127000
     22 H9           2.1430    -2.5970     0.1810 ha         1 AVR       0.157000
     23 HA          -2.2900    -0.4960    -1.2640 h1         1 AVR       0.074700
     24 HB          -2.7030    -3.5130    -1.0410 hc         1 AVR       0.043033
     25 HBA         -3.7540    -2.3550    -1.8890 hc         1 AVR       0.043033
     26 HBB         -2.1020    -2.6340    -2.4640 hc         1 AVR       0.043033
     27 H10         -2.2140     1.1240     0.1000 hc         1 AVR       0.061700
     28 H11         -1.4100     2.7160     1.7980 hc         1 AVR       0.039533
     29 H11A        -0.8270     3.7930     0.5080 hc         1 AVR       0.039533
     30 H11B        -2.5570     3.4340     0.6520 hc         1 AVR       0.039533
     31 H12         -1.4920     1.3190    -2.3300 hc         1 AVR       0.039533
     32 H12A        -2.5840     2.6220    -1.8170 hc         1 AVR       0.039533
     33 H12B        -0.8400     2.9250    -1.9670 hc         1 AVR       0.039533
     34 C10         -1.3900     1.7770    -0.1840 c3         1 AVR      -0.079000
@<TRIPOS>BOND
     1     1     3 2   
     2     1     6 1   
     3     1    13 1   
     4     2    13 1   
     5     2    17 1   
     6     2    18 1   
     7     4     5 2   
     8     4     8 1   
     9     5     6 1   
    10     5    34 1   
    11     6     7 2   
    12     7     8 1   
    13     7    12 1   
    14     8     9 1   
    15     9    10 2   
    16     9    19 1   
    17    10    11 1   
    18    10    20 1   
    19    11    12 2   
    20    11    21 1   
    21    12    22 1   
    22    13    14 1   
    23    13    23 1   
    24    14    24 1   
    25    14    25 1   
    26    14    26 1   
    27    15    28 1   
    28    15    29 1   
    29    15    30 1   
    30    15    34 1   
    31    16    31 1   
    32    16    32 1   
    33    16    33 1   
    34    16    34 1   
    35    27    34 1   
@<TRIPOS>SUBSTRUCTURE
     1 AVR         1 TEMP              0 ****  ****    0 ROOT
