@<TRIPOS>MOLECULE
AVR
   34    35     1     0     0
SMALL
abcg2


@<TRIPOS>ATOM
      1 C           -0.9550    -1.4770     0.4080 c          1 AVR       0.630300
      2 N           -3.2630    -2.2440     0.4250 n8         1 AVR      -0.980200
      3 O           -0.6190    -2.5040     0.9770 o          1 AVR      -0.549100
      4 N1           0.9550     1.6590     0.0090 nc         1 AVR      -0.593100
      5 C2          -0.2030     1.0260     0.0550 cd         1 AVR       0.439600
      6 C3          -0.0250    -0.3640     0.2770 cd         1 AVR      -0.398800
      7 C4           1.3700    -0.5260     0.3790 cc         1 AVR      -0.032000
      8 N5           1.8940     0.7230     0.1870 na         1 AVR       0.325400
      9 C6           3.2230     0.9910     0.1810 cc         1 AVR      -0.077000
     10 C7           4.0980    -0.0300     0.3770 cd         1 AVR      -0.158000
     11 C8           3.6100    -1.3410     0.5810 cd         1 AVR      -0.085000
     12 C9           2.2650    -1.5930     0.5850 cc         1 AVR      -0.094000
     13 CA          -2.3030    -1.4270    -0.2900 c3         1 AVR       0.067500
     14 CB          -2.0680    -1.8480    -1.7500 c3         1 AVR      -0.130100
     15 C11         -1.3160     3.2100     0.5770 c3         1 AVR      -0.085100
     16 C12         -1.8450     1.9970    -1.5590 c3         1 AVR      -0.085100
     17 HN          -4.1430    -2.2220    -0.0750 hn         1 AVR       0.400500
     18 HNA         -2.9620    -3.2110     0.4120 hn         1 AVR       0.400500
     19 H6           3.5020     2.0200     0.0170 h4         1 AVR       0.161000
     20 H7           5.1580     0.1740     0.3750 ha         1 AVR       0.135000
     21 H8           4.3090    -2.1500     0.7380 ha         1 AVR       0.127000
     22 H9           1.8820    -2.5870     0.7480 ha         1 AVR       0.157000
     23 HA          -2.6800    -0.4050    -0.2950 h1         1 AVR       0.074700
     24 HB          -1.7300    -2.8850    -1.7990 hc         1 AVR       0.043033
     25 HBA         -2.9970    -1.7660    -2.3140 hc         1 AVR       0.043033
     26 HBB         -1.3210    -1.2270    -2.2470 hc         1 AVR       0.043033
     27 H10         -2.2640     1.3160     0.4320 hc         1 AVR       0.061700
     28 H11         -1.0450     3.1200     1.6290 hc         1 AVR       0.039533
     29 H11A        -0.5560     3.8160     0.0840 hc         1 AVR       0.039533
     30 H11B        -2.2630     3.7470     0.5190 hc         1 AVR       0.039533
     31 H12         -1.9980     1.0370    -2.0510 hc         1 AVR       0.039533
     32 H12A        -2.7710     2.5670    -1.6470 hc         1 AVR       0.039533
     33 H12B        -1.0670     2.5320    -2.1060 hc         1 AVR       0.039533
     34 C10         -1.4590     1.8410    -0.0860 c3         1 AVR      -0.079000
@<TRIPOS>BOND
     1     1     3 2   
     2     1     6 1   
     3     1    13 1   
     4     2    13 1   
     5     2    17 1   
     6     2    18 1   
     7     4     5 2   
     8     4     8 1   
     9     5     6 1   
    10     5    34 1   
    11     6     7 2   
    12     7     8 1   
    13     7    12 1   
    14     8     9 1   
    15     9    10 2   
    16     9    19 1   
    17    10    11 1   
    18    10    20 1   
    19    11    12 2   
    20    11    21 1   
    21    12    22 1   
    22    13    14 1   
    23    13    23 1   
    24    14    24 1   
    25    14    25 1   
    26    14    26 1   
    27    15    28 1   
    28    15    29 1   
    29    15    30 1   
    30    15    34 1   
    31    16    31 1   
    32    16    32 1   
    33    16    33 1   
    34    16    34 1   
    35    27    34 1   
@<TRIPOS>SUBSTRUCTURE
     1 AVR         1 TEMP              0 ****  ****    0 ROOT
