@<TRIPOS>MOLECULE
AVT
   44    47     1     0     0
SMALL
abcg2


@<TRIPOS>ATOM
      1 F27         -3.9410    -4.4430    -0.1010 f          1 AVT      -0.188000
      2 C5          -2.7510    -3.8240    -0.1140 ca         1 AVT       0.161000
      3 C3          -2.7180    -2.4650     0.0310 ca         1 AVT      -0.128000
      4 C6          -1.6080    -4.6090    -0.2770 ca         1 AVT      -0.167000
      5 C4          -0.3930    -3.9780    -0.2940 ca         1 AVT      -0.056000
      6 C2          -0.3000    -2.5800    -0.1500 ca         1 AVT       0.218000
      7 N9           0.9450    -2.0400    -0.1960 nb         1 AVT      -0.667000
      8 C10          1.1190    -0.7610    -0.0720 cp         1 AVT       0.435500
      9 C11          2.5120    -0.2700    -0.1230 cp         1 AVT      -0.160500
     10 C13          3.5110    -1.0130     0.4990 ca         1 AVT      -0.032000
     11 C15          4.8430    -0.6250     0.4590 ca         1 AVT      -0.190000
     12 C16          5.2040     0.5260    -0.2390 ca         1 AVT       0.136100
     13 O28          6.4600     0.9900    -0.3410 os         1 AVT      -0.346100
     14 C29          7.4990     0.2840     0.3090 c3         1 AVT       0.152900
     15 C14          4.2130     1.2680    -0.8870 ca         1 AVT      -0.190000
     16 C12          2.8900     0.8810    -0.8210 ca         1 AVT      -0.032000
     17 C8           0.0040     0.1280     0.1540 ca         1 AVT       0.191400
     18 N19          0.2710     1.4430     0.3440 nc         1 AVT      -0.691100
     19 C20         -0.7050     2.2550     0.5850 cd         1 AVT       0.550900
     20 C22         -0.3800     3.6980     0.7820 c3         1 AVT      -0.137400
     21 N18         -1.9990     1.8460     0.6730 n          1 AVT      -0.252300
     22 C17         -2.3780     0.5380     0.4040 c          1 AVT       0.574600
     23 O21         -3.5610     0.2440     0.3790 o          1 AVT      -0.532000
     24 C7          -1.2790    -0.3950     0.1890 ca         1 AVT      -0.197600
     25 C1          -1.4720    -1.8040     0.0200 ca         1 AVT       0.020000
     26 C23         -3.0830     2.8000     0.8500 c3         1 AVT      -0.086000
     27 C24         -3.6490     3.3070    -0.5000 c          1 AVT       0.721000
     28 O25         -4.6990     3.9630    -0.4010 o          1 AVT      -0.708500
     29 O26         -2.9950     3.0380    -1.5200 o          1 AVT      -0.708500
     30 H1          -3.6380    -1.9180     0.1550 ha         1 AVT       0.171000
     31 H2          -1.6890    -5.6820    -0.3860 ha         1 AVT       0.121000
     32 H3           0.5200    -4.5430    -0.4210 ha         1 AVT       0.122000
     33 H4           3.2480    -1.9130     1.0410 ha         1 AVT       0.129500
     34 H5           5.5770    -1.2260     0.9770 ha         1 AVT       0.114500
     35 H6           7.3460     0.2390     1.3910 h1         1 AVT       0.034700
     36 H7           4.4910     2.1560    -1.4420 ha         1 AVT       0.114500
     37 H8           2.1500     1.4750    -1.3350 ha         1 AVT       0.129500
     38 H9           0.6880     3.8320     0.6360 hc         1 AVT       0.066700
     39 H10         -0.9130     4.3250     0.0680 hc         1 AVT       0.066700
     40 H11         -0.6380     4.0420     1.7840 hc         1 AVT       0.066700
     41 H12         -3.8680     2.3320     1.4390 h1         1 AVT       0.052200
     42 H13         -2.7250     3.6460     1.4340 h1         1 AVT       0.052200
     43 H15          7.6050    -0.7340    -0.0740 h1         1 AVT       0.034700
     44 H16          8.4170     0.8310     0.1080 h1         1 AVT       0.034700
@<TRIPOS>BOND
     1     1     2 1   
     2     2     3 ar  
     3     2     4 ar  
     4     3    25 ar  
     5     3    30 1   
     6     4     5 ar  
     7     4    31 1   
     8     5     6 ar  
     9     5    32 1   
    10     6     7 ar  
    11     6    25 ar  
    12     7     8 ar  
    13     8     9 1   
    14     8    17 ar  
    15     9    10 ar  
    16     9    16 ar  
    17    10    11 ar  
    18    10    33 1   
    19    11    12 ar  
    20    11    34 1   
    21    12    13 1   
    22    12    15 ar  
    23    13    14 1   
    24    14    35 1   
    25    14    43 1   
    26    14    44 1   
    27    15    16 ar  
    28    15    36 1   
    29    16    37 1   
    30    17    18 1   
    31    17    24 ar  
    32    18    19 2   
    33    19    20 1   
    34    19    21 1   
    35    20    38 1   
    36    20    39 1   
    37    20    40 1   
    38    21    22 1   
    39    21    26 1   
    40    22    23 2   
    41    22    24 1   
    42    24    25 ar  
    43    26    27 1   
    44    26    41 1   
    45    26    42 1   
    46    27    28 1   
    47    27    29 1   
@<TRIPOS>SUBSTRUCTURE
     1 AVT         1 TEMP              0 ****  ****    0 ROOT
