@<TRIPOS>MOLECULE
AVT
   44    47     1     0     0
SMALL
No Charge or Current Charge


@<TRIPOS>ATOM
      1 F27         -3.9730    -4.5020     0.0670 f          1 AVT      -0.188000
      2 C5          -2.7720    -3.8910    -0.0270 ca         1 AVT       0.161000
      3 C3          -2.6860    -2.5000     0.1270 ca         1 AVT      -0.128000
      4 C6          -1.6290    -4.6520    -0.2670 ca         1 AVT      -0.167000
      5 C4          -0.3870    -4.0100    -0.3370 ca         1 AVT      -0.056000
      6 C2          -0.2750    -2.6140    -0.1820 ca         1 AVT       0.218000
      7 N9           0.9530    -2.0810    -0.2420 nb         1 AVT      -0.667000
      8 C10          1.1160    -0.7540    -0.0760 cp         1 AVT       0.435500
      9 C11          2.5540    -0.3110    -0.1360 cp         1 AVT      -0.160500
     10 C13          3.5710    -1.0540     0.5200 ca         1 AVT      -0.032000
     11 C15          4.9190    -0.6560     0.4620 ca         1 AVT      -0.190000
     12 C16          5.2850     0.4950    -0.2650 ca         1 AVT       0.136100
     13 O28          6.5900     0.9330    -0.3590 os         1 AVT      -0.346100
     14 C29          7.6780     0.2460     0.2850 c3         1 AVT       0.152900
     15 C14          4.2960     1.2330    -0.9300 ca         1 AVT      -0.190000
     16 C12          2.9490     0.8370    -0.8710 ca         1 AVT      -0.032000
     17 C8           0.0260     0.1600     0.1620 ca         1 AVT       0.191400
     18 N19          0.2640     1.5340     0.4020 nc         1 AVT      -0.691100
     19 C20         -0.7970     2.3020     0.6280 cd         1 AVT       0.550900
     20 C22         -0.4240     3.7380     0.9130 c3         1 AVT      -0.137400
     21 N18         -2.1190     1.8940     0.6040 n          1 AVT      -0.252300
     22 C17         -2.4370     0.5710     0.3070 c          1 AVT       0.574600
     23 O21         -3.6030     0.2530     0.1220 o          1 AVT      -0.532000
     24 C7          -1.2850    -0.3910     0.1710 ca         1 AVT      -0.197600
     25 C1          -1.4380    -1.8180     0.0340 ca         1 AVT       0.020000
     26 C23         -3.2470     2.8730     0.7870 c3         1 AVT      -0.086000
     27 C24         -3.8140     3.4490    -0.5290 c          1 AVT       0.721000
     28 O25         -5.0030     3.7290    -0.5650 o          1 AVT      -0.708500
     29 O26         -3.0550     3.5970    -1.4760 o          1 AVT      -0.708500
     30 H1          -3.6190    -2.0020     0.3430 ha         1 AVT       0.171000
     31 H2          -1.7010    -5.7300    -0.3840 ha         1 AVT       0.121000
     32 H3           0.5090    -4.6020    -0.5100 ha         1 AVT       0.122000
     33 H4           3.3090    -1.9450     1.0870 ha         1 AVT       0.129500
     34 H5           5.6590    -1.2540     0.9850 ha         1 AVT       0.114500
     35 H6           7.5310     0.2170     1.3730 h1         1 AVT       0.034700
     36 H7           4.5740     2.1170    -1.4980 ha         1 AVT       0.114500
     37 H8           2.2050     1.4200    -1.4110 ha         1 AVT       0.129500
     38 H9           0.6540     3.9130     0.8190 hc         1 AVT       0.066700
     39 H10         -0.9210     4.4220     0.2160 hc         1 AVT       0.066700
     40 H11         -0.7090     4.0190     1.9330 hc         1 AVT       0.066700
     41 H12         -4.0680     2.3820     1.3230 h1         1 AVT       0.052200
     42 H13         -2.9350     3.7160     1.4120 h1         1 AVT       0.052200
     43 H15          7.7640    -0.7830    -0.0870 h1         1 AVT       0.034700
     44 H16          8.6250     0.7610     0.0830 h1         1 AVT       0.034700
@<TRIPOS>BOND
     1     1     2 1   
     2     2     3 ar  
     3     2     4 ar  
     4     3    25 ar  
     5     3    30 1   
     6     4     5 ar  
     7     4    31 1   
     8     5     6 ar  
     9     5    32 1   
    10     6     7 ar  
    11     6    25 ar  
    12     7     8 ar  
    13     8     9 1   
    14     8    17 ar  
    15     9    10 ar  
    16     9    16 ar  
    17    10    11 ar  
    18    10    33 1   
    19    11    12 ar  
    20    11    34 1   
    21    12    13 1   
    22    12    15 ar  
    23    13    14 1   
    24    14    35 1   
    25    14    43 1   
    26    14    44 1   
    27    15    16 ar  
    28    15    36 1   
    29    16    37 1   
    30    17    18 1   
    31    17    24 ar  
    32    18    19 2   
    33    19    20 1   
    34    19    21 1   
    35    20    38 1   
    36    20    39 1   
    37    20    40 1   
    38    21    22 1   
    39    21    26 1   
    40    22    23 2   
    41    22    24 1   
    42    24    25 ar  
    43    26    27 1   
    44    26    41 1   
    45    26    42 1   
    46    27    28 1   
    47    27    29 1   
@<TRIPOS>SUBSTRUCTURE
     1 AVT         1 TEMP              0 ****  ****    0 ROOT
