@<TRIPOS>MOLECULE
AVU
   55    58     1     0     0
SMALL
No Charge or Current Charge


@<TRIPOS>ATOM
      1 N1           1.1070    -2.9120     2.6080 nb         1 AVU      -0.313000
      2 C2           2.3310    -3.3880     2.2780 ca         1 AVU       0.156900
      3 N3           3.5220    -2.9590     2.7590 nb         1 AVU      -0.201000
      4 C4           3.4680    -1.9650     3.6690 ca         1 AVU       0.107500
      5 C5           2.2780    -1.4270     4.0840 ca         1 AVU      -0.096600
      6 C6           1.0890    -1.9280     3.5160 ca         1 AVU       0.430900
      7 N6          -0.1300    -1.3930     3.7960 nv         1 AVU      -1.086900
      8 N7           2.4470    -0.4100     5.0130 nc         1 AVU      -0.575100
      9 C8           3.7880    -0.3620     5.1370 cd         1 AVU       0.463700
     10 N9           4.4670    -1.2870     4.3170 na         1 AVU      -0.309300
     11 PA           6.9080     4.0700     4.1020 p5         1 AVU       1.481800
     12 PB           4.3110     4.2150     3.9040 p5         1 AVU       1.490800
     13 C1           5.9130    -1.4540     4.1760 c5         1 AVU       0.313300
     14 O1A          7.4880     5.0880     3.1780 o          1 AVU      -0.847000
     15 O1B          4.4300     5.6980     3.7780 o          1 AVU      -0.854500
     16 C1R          2.6090     1.1170    -0.7260 c5         1 AVU       0.120600
     17 C7           6.4800    -1.1450     2.7380 c5         1 AVU       0.123300
     18 O2           7.6780    -1.8690     2.4010 oh         1 AVU      -0.738000
     19 O2A          6.8260     4.5370     5.5160 o          1 AVU      -0.847000
     20 O2B          3.7400     3.7870     5.2150 o          1 AVU      -0.854500
     21 C2R          1.2990     0.4650    -0.1750 c5         1 AVU       0.149300
     22 F2R          1.2280    -0.8940    -0.5030 f          1 AVU      -0.272000
     23 C3           6.8080     0.3600     2.9120 c5         1 AVU       0.123300
     24 O3           7.7130     0.8460     1.9080 oh         1 AVU      -0.749000
     25 O3A          5.6070     3.4130     3.5140 os         1 AVU      -0.742800
     26 C3R          1.4340     0.6640     1.3680 c5         1 AVU       0.101300
     27 O3R          0.1680     0.7430     2.0470 oh         1 AVU      -0.730000
     28 C9           7.4550     0.3300     4.3280 c5         1 AVU       0.113300
     29 O4           6.5660    -0.5260     5.0840 os         1 AVU      -0.463000
     30 C4R          2.2370     1.9910     1.3940 c5         1 AVU       0.114300
     31 O4R          3.2600     1.7240     0.4120 os         1 AVU      -0.392000
     32 C10          7.6200     1.7090     5.0260 c3         1 AVU       0.210600
     33 O5           7.8110     2.7360     4.0310 os         1 AVU      -0.624400
     34 C5R          2.8630     2.3480     2.7680 c3         1 AVU       0.248600
     35 O5R          3.3910     3.6770     2.6980 os         1 AVU      -0.587400
     36 H2           2.3620    -4.1890     1.5420 h5         1 AVU       0.031100
     37 HN6         -0.9260    -2.0020     3.6130 hn         1 AVU       0.500000
     38 HN6A        -0.1860    -0.9030     4.6890 hn         1 AVU       0.500000
     39 H8           4.3300     0.3220     5.7810 h5         1 AVU       0.116800
     40 H1           6.1290    -2.4910     4.4620 h2         1 AVU       0.091700
     41 H6           5.7110    -1.2930     1.9660 h1         1 AVU       0.088700
     42 HO2          8.2190    -1.1920     1.9210 ho         1 AVU       0.531000
     43 H2R          0.4100     0.9670    -0.5770 h1         1 AVU       0.060700
     44 H3           5.8810     0.9520     2.9230 h1         1 AVU       0.090700
     45 HO3          7.9790     1.7450     2.2400 ho         1 AVU       0.571000
     46 H3R          2.0530    -0.1380     1.7890 h1         1 AVU       0.060700
     47 HO3R         0.0960    -0.0640     2.6390 ho         1 AVU       0.513000
     48 H4           8.4430    -0.1500     4.2900 h1         1 AVU       0.059700
     49 H4R          1.6180     2.8320     1.0510 h1         1 AVU       0.055700
     50 H5           6.7190     1.8990     5.6260 h1         1 AVU       0.054700
     51 H5'A         8.4750     1.6670     5.7130 h1         1 AVU       0.054700
     52 H5R          2.0840     2.2890     3.5390 h1         1 AVU       0.021700
     53 H5RA         3.6450     1.6170     3.0110 h1         1 AVU       0.021700
     54 H1R          3.2870     0.3840    -1.1820 h1         1 AVU       0.054200
     55 H1RA         2.3820     1.8950    -1.4670 h1         1 AVU       0.054200
@<TRIPOS>BOND
     1     1     2 ar  
     2     1     6 ar  
     3     2     3 ar  
     4     2    36 1   
     5     3     4 ar  
     6     4     5 ar  
     7     4    10 1   
     8     5     6 ar  
     9     5     8 1   
    10     6     7 1   
    11     7    37 1   
    12     7    38 1   
    13     8     9 2   
    14     9    10 1   
    15     9    39 1   
    16    10    13 1   
    17    11    14 1   
    18    11    19 1   
    19    11    25 1   
    20    11    33 1   
    21    12    15 1   
    22    12    20 1   
    23    12    25 1   
    24    12    35 1   
    25    13    17 1   
    26    13    29 1   
    27    13    40 1   
    28    16    21 1   
    29    16    31 1   
    30    16    54 1   
    31    16    55 1   
    32    17    18 1   
    33    17    23 1   
    34    17    41 1   
    35    18    42 1   
    36    21    22 1   
    37    21    26 1   
    38    21    43 1   
    39    23    24 1   
    40    23    28 1   
    41    23    44 1   
    42    24    45 1   
    43    26    27 1   
    44    26    30 1   
    45    26    46 1   
    46    27    47 1   
    47    28    29 1   
    48    28    32 1   
    49    28    48 1   
    50    30    31 1   
    51    30    34 1   
    52    30    49 1   
    53    32    33 1   
    54    32    50 1   
    55    32    51 1   
    56    34    35 1   
    57    34    52 1   
    58    34    53 1   
@<TRIPOS>SUBSTRUCTURE
     1 AVU         1 TEMP              0 ****  ****    0 ROOT
