@<TRIPOS>MOLECULE
AVU
   55    58     1     0     0
SMALL
abcg2


@<TRIPOS>ATOM
      1 N1           0.8800    -3.0850     2.9890 nb         1 AVU      -0.313000
      2 C2           2.0580    -3.4990     2.5080 ca         1 AVU       0.156900
      3 N3           3.2750    -3.0540     2.8120 nb         1 AVU      -0.201000
      4 C4           3.2340    -2.0750     3.7230 ca         1 AVU       0.107500
      5 C5           2.0880    -1.5590     4.3280 ca         1 AVU      -0.096600
      6 C6           0.8580    -2.1040     3.9110 ca         1 AVU       0.430900
      7 N6          -0.3230    -1.6820     4.3900 nv         1 AVU      -1.086900
      8 N7           2.4210    -0.5530     5.2150 nc         1 AVU      -0.575100
      9 C8           3.7280    -0.4590     5.1380 cd         1 AVU       0.463700
     10 N9           4.2800    -1.3490     4.2460 na         1 AVU      -0.309300
     11 PA           7.0840     4.1930     3.8330 p5         1 AVU       1.481800
     12 PB           4.1510     4.3360     4.2790 p5         1 AVU       1.490800
     13 C1           5.6940    -1.5160     3.8860 c5         1 AVU       0.313300
     14 O1A          7.7620     4.8820     2.6990 o          1 AVU      -0.847000
     15 O1B          3.9800     5.8150     4.3580 o          1 AVU      -0.854500
     16 C1R          3.5210     1.4650    -0.3640 c5         1 AVU       0.120600
     17 C7           5.9640    -1.1050     2.4350 c5         1 AVU       0.123300
     18 O2           7.0630    -1.8700     1.9640 oh         1 AVU      -0.738000
     19 O2A          7.2090     4.7090     5.2280 o          1 AVU      -0.847000
     20 O2B          4.0870     3.4870     5.5060 o          1 AVU      -0.854500
     21 C2R          2.6070     0.2960    -0.0110 c5         1 AVU       0.149300
     22 F2R          3.3250    -0.9190     0.0010 f          1 AVU      -0.272000
     23 C3           6.3460     0.3640     2.6000 c5         1 AVU       0.123300
     24 O3           7.1170     0.7970     1.4960 oh         1 AVU      -0.749000
     25 O3A          5.5160     3.9920     3.4440 os         1 AVU      -0.742800
     26 C3R          2.0920     0.6220     1.3900 c5         1 AVU       0.101300
     27 O3R          0.6900     0.4290     1.4680 oh         1 AVU      -0.730000
     28 C9           7.1060     0.3540     3.9280 c5         1 AVU       0.113300
     29 O4           6.4790    -0.6830     4.7110 os         1 AVU      -0.463000
     30 C4R          2.5560     2.0730     1.6090 c5         1 AVU       0.114300
     31 O4R          3.7720     2.1560     0.8630 os         1 AVU      -0.392000
     32 C10          7.0380     1.6760     4.6640 c3         1 AVU       0.210600
     33 O5           7.5930     2.6440     3.7620 os         1 AVU      -0.624400
     34 C5R          2.8060     2.4150     3.0530 c3         1 AVU       0.248600
     35 O5R          3.0690     3.8140     3.1860 os         1 AVU      -0.587400
     36 H2           2.0090    -4.2960     1.7740 h5         1 AVU       0.031100
     37 HN6         -1.1780    -2.0700     4.0280 hn         1 AVU       0.500000
     38 HN6A        -0.3670    -0.9250     5.0500 hn         1 AVU       0.500000
     39 H8           4.3410     0.2290     5.6940 h5         1 AVU       0.116800
     40 H1           5.9590    -2.5610     4.0500 h2         1 AVU       0.091700
     41 H6           5.0880    -1.2460     1.8010 h1         1 AVU       0.088700
     42 HO2          7.5660    -1.3000     1.3640 ho         1 AVU       0.531000
     43 H2R          1.7910     0.1600    -0.7190 h1         1 AVU       0.060700
     44 H3           5.4390     0.9650     2.6930 h1         1 AVU       0.090700
     45 HO3          7.5030     1.6520     1.7390 ho         1 AVU       0.571000
     46 H3R          2.6110    -0.0330     2.0940 h1         1 AVU       0.060700
     47 HO3R         0.4130     0.5000     2.3900 ho         1 AVU       0.513000
     48 H4           8.1490     0.0800     3.7450 h1         1 AVU       0.059700
     49 H4R          1.8050     2.7540     1.1840 h1         1 AVU       0.055700
     50 H5           6.0010     1.9230     4.9000 h1         1 AVU       0.054700
     51 H5'A         7.6180     1.6510     5.5880 h1         1 AVU       0.054700
     52 H5R          1.9230     2.1590     3.6440 h1         1 AVU       0.021700
     53 H5RA         3.6420     1.8250     3.4290 h1         1 AVU       0.021700
     54 H1R          4.4690     1.1380    -0.7870 h1         1 AVU       0.054200
     55 H1RA         3.0150     2.1310    -1.0710 h1         1 AVU       0.054200
@<TRIPOS>BOND
     1     1     2 ar  
     2     1     6 ar  
     3     2     3 ar  
     4     2    36 1   
     5     3     4 ar  
     6     4     5 ar  
     7     4    10 1   
     8     5     6 ar  
     9     5     8 1   
    10     6     7 1   
    11     7    37 1   
    12     7    38 1   
    13     8     9 2   
    14     9    10 1   
    15     9    39 1   
    16    10    13 1   
    17    11    14 1   
    18    11    19 1   
    19    11    25 1   
    20    11    33 1   
    21    12    15 1   
    22    12    20 1   
    23    12    25 1   
    24    12    35 1   
    25    13    17 1   
    26    13    29 1   
    27    13    40 1   
    28    16    21 1   
    29    16    31 1   
    30    16    54 1   
    31    16    55 1   
    32    17    18 1   
    33    17    23 1   
    34    17    41 1   
    35    18    42 1   
    36    21    22 1   
    37    21    26 1   
    38    21    43 1   
    39    23    24 1   
    40    23    28 1   
    41    23    44 1   
    42    24    45 1   
    43    26    27 1   
    44    26    30 1   
    45    26    46 1   
    46    27    47 1   
    47    28    29 1   
    48    28    32 1   
    49    28    48 1   
    50    30    31 1   
    51    30    34 1   
    52    30    49 1   
    53    32    33 1   
    54    32    50 1   
    55    32    51 1   
    56    34    35 1   
    57    34    52 1   
    58    34    53 1   
@<TRIPOS>SUBSTRUCTURE
     1 AVU         1 TEMP              0 ****  ****    0 ROOT
