@<TRIPOS>MOLECULE
AVV
   56    59     1     0     0
SMALL
abcg2


@<TRIPOS>ATOM
      1 PA          -0.8600    -1.5370     0.4960 p5         1 AVV       1.466800
      2 PN          -2.3740     0.8780     1.0400 p5         1 AVV       1.456800
      3 F1A          7.8770     2.3430    -0.1870 f          1 AVV      -0.236200
      4 N1A          6.5310     2.6790     1.5430 nb         1 AVV      -0.357000
      5 O1A         -1.8960    -2.6140     0.5300 o          1 AVV      -0.853000
      6 O1N         -2.8960     0.1210     2.2200 o          1 AVV      -0.850000
      7 C2A          6.7370     2.0260     0.4240 ca         1 AVV       0.372200
      8 O2A          0.0710    -1.3490     1.6570 o          1 AVV      -0.853000
      9 O2N         -1.6150     2.1530     1.2310 o          1 AVV      -0.850000
     10 O3          -1.5220    -0.1080     0.0430 os         1 AVV      -0.684800
     11 N3A          6.0220     1.1250    -0.1890 nb         1 AVV      -0.237000
     12 C4A          4.9020     0.8730     0.4940 ca         1 AVV       0.124500
     13 C5A          4.5190     1.4650     1.6860 ca         1 AVV      -0.095600
     14 C6A          5.4020     2.4230     2.2200 ca         1 AVV       0.462900
     15 N6A          5.1670     3.0720     3.3550 nv         1 AVV      -1.068900
     16 N7A          3.3060     0.9790     2.1000 nc         1 AVV      -0.550100
     17 C8A          2.9670     0.1170     1.1870 cd         1 AVV       0.469700
     18 N9A          3.8990     0.0090     0.1830 na         1 AVV      -0.288300
     19 C1'A         3.8530    -0.8600    -0.9710 c5         1 AVV       0.323300
     20 C1'N        -7.4620     0.8380    -1.1720 c5         1 AVV       0.129600
     21 C2'A         4.1460    -2.3260    -0.6510 c5         1 AVV       0.067300
     22 O2'A         5.5230    -2.5490    -0.6420 oh         1 AVV      -0.705000
     23 C2'N        -7.8070     1.8880    -0.1200 c5         1 AVV       0.079300
     24 O2'N        -9.1160     2.3820    -0.1700 oh         1 AVV      -0.736000
     25 C3'A         3.3780    -3.0290    -1.7750 c5         1 AVV       0.097300
     26 O3'A         4.0800    -2.9550    -2.9880 oh         1 AVV      -0.714000
     27 C3'N        -6.8030     2.9870    -0.4660 c5         1 AVV       0.139300
     28 O3'N        -7.2070     3.7200    -1.5960 oh         1 AVV      -0.719000
     29 C4'A         2.1380    -2.1520    -1.8660 c5         1 AVV       0.158300
     30 O4'A         2.5660    -0.8340    -1.5090 os         1 AVV      -0.406000
     31 C4'N        -5.5740     2.1630    -0.8350 c5         1 AVV       0.155300
     32 O4'N        -6.0550     0.9090    -1.3120 os         1 AVV      -0.407000
     33 C5'A         1.0440    -2.6350    -0.9310 c3         1 AVV       0.214600
     34 O5'A         0.0180    -1.6740    -0.8930 os         1 AVV      -0.559400
     35 C5'N        -4.6530     1.9570     0.3520 c3         1 AVV       0.219600
     36 O5'N        -3.5870     1.1250    -0.0460 os         1 AVV      -0.561400
     37 HAN6         4.3150     2.9230     3.8680 hn         1 AVV       0.503500
     38 HANA         5.8090     3.7700     3.6890 hn         1 AVV       0.503500
     39 HC1          4.5960    -0.4720    -1.6770 h2         1 AVV       0.095700
     40 HC1B        -7.9720     1.0700    -2.1150 h1         1 AVV       0.034200
     41 HC2          3.6880    -2.5840     0.3130 h1         1 AVV       0.074700
     42 HO2          5.7020    -3.3600    -0.1570 ho         1 AVV       0.498000
     43 HC2A        -7.5650     1.4980     0.8780 h1         1 AVV       0.062700
     44 HO2A        -9.7270     1.6750     0.0590 ho         1 AVV       0.501000
     45 HC3          3.1270    -4.0660    -1.5120 h1         1 AVV       0.047700
     46 HO3          4.9890    -3.2350    -2.8240 ho         1 AVV       0.501000
     47 HC3A        -6.6110     3.6500     0.3890 h1         1 AVV       0.052700
     48 HO3A        -8.0990     4.0490    -1.4390 ho         1 AVV       0.500000
     49 HC4          1.7540    -2.1170    -2.8900 h1         1 AVV       0.092700
     50 HC4A        -5.0100     2.6610    -1.6330 h1         1 AVV       0.086700
     51 HC5          0.6730    -3.5960    -1.3080 h1         1 AVV       0.011200
     52 HC5A         1.4560    -2.8210     0.0680 h1         1 AVV       0.011200
     53 HC5B        -4.2930     2.9390     0.6820 h1         1 AVV       0.012700
     54 HC5C        -5.2070     1.5140     1.1890 h1         1 AVV       0.012700
     55 HC8          2.0440    -0.4520     1.1890 h5         1 AVV       0.158800
     56 HC1A        -7.7410    -0.1750    -0.8740 h1         1 AVV       0.034200
@<TRIPOS>BOND
     1     1     5 1   
     2     1     8 1   
     3     1    10 1   
     4     1    34 1   
     5     2     6 1   
     6     2     9 1   
     7     2    10 1   
     8     2    36 1   
     9     3     7 1   
    10     4     7 ar  
    11     4    14 ar  
    12     7    11 ar  
    13    11    12 ar  
    14    12    13 ar  
    15    12    18 1   
    16    13    14 ar  
    17    13    16 1   
    18    14    15 1   
    19    15    37 1   
    20    15    38 1   
    21    16    17 2   
    22    17    18 1   
    23    17    55 1   
    24    18    19 1   
    25    19    21 1   
    26    19    30 1   
    27    19    39 1   
    28    20    23 1   
    29    20    32 1   
    30    20    40 1   
    31    20    56 1   
    32    21    22 1   
    33    21    25 1   
    34    21    41 1   
    35    22    42 1   
    36    23    24 1   
    37    23    27 1   
    38    23    43 1   
    39    24    44 1   
    40    25    26 1   
    41    25    29 1   
    42    25    45 1   
    43    26    46 1   
    44    27    28 1   
    45    27    31 1   
    46    27    47 1   
    47    28    48 1   
    48    29    30 1   
    49    29    33 1   
    50    29    49 1   
    51    31    32 1   
    52    31    35 1   
    53    31    50 1   
    54    33    34 1   
    55    33    51 1   
    56    33    52 1   
    57    35    36 1   
    58    35    53 1   
    59    35    54 1   
@<TRIPOS>SUBSTRUCTURE
     1 AVV         1 TEMP              0 ****  ****    0 ROOT
