@<TRIPOS>MOLECULE
AVV
   56    59     1     0     0
SMALL
No Charge or Current Charge


@<TRIPOS>ATOM
      1 PA          -1.1340    -1.4800     1.6280 p5         1 AVV       1.466800
      2 PN          -2.1600     0.9010     2.1080 p5         1 AVV       1.456800
      3 F1A          7.6080     0.1880    -0.6260 f          1 AVV      -0.236200
      4 N1A          6.9930     0.0510     1.5750 nb         1 AVV      -0.357000
      5 O1A         -2.1870    -2.3600     2.2180 o          1 AVV      -0.853000
      6 O1N         -3.2620     0.4510     3.0090 o          1 AVV      -0.850000
      7 C2A          6.6180     0.2250     0.2910 ca         1 AVV       0.372200
      8 O2A          0.0340    -1.3130     2.5390 o          1 AVV      -0.853000
      9 O2N         -1.0120     1.4780     2.8670 o          1 AVV      -0.850000
     10 O3          -1.7170    -0.1500     1.0220 os         1 AVV      -0.684800
     11 N3A          5.3700     0.4320    -0.1870 nb         1 AVV      -0.237000
     12 C4A          4.3920     0.4660     0.7400 ca         1 AVV       0.124500
     13 C5A          4.6590     0.3050     2.0760 ca         1 AVV      -0.095600
     14 C6A          5.9980     0.0910     2.4690 ca         1 AVV       0.462900
     15 N6A          6.3650    -0.0800     3.7650 nv         1 AVV      -1.068900
     16 N7A          3.5160     0.3950     2.8600 nc         1 AVV      -0.550100
     17 C8A          2.5530     0.6070     1.9370 cd         1 AVV       0.469700
     18 N9A          3.0380     0.6550     0.6130 na         1 AVV      -0.288300
     19 C1'A         2.2650     0.9510    -0.5910 c5         1 AVV       0.323300
     20 C1'N        -6.2120     0.0300    -0.2650 c5         1 AVV       0.129600
     21 C2'A         2.6010     0.0900    -1.8690 c5         1 AVV       0.067300
     22 O2'A         3.4360     0.7630    -2.8380 oh         1 AVV      -0.705000
     23 C2'N        -6.3490     1.0320    -1.4690 c5         1 AVV       0.079300
     24 O2'N        -7.1170     0.5000    -2.5740 oh         1 AVV      -0.736000
     25 C3'A         1.1900    -0.1900    -2.4590 c5         1 AVV       0.097300
     26 O3'A         0.7780     0.9130    -3.2740 oh         1 AVV      -0.714000
     27 C3'N        -4.8630     1.2790    -1.9100 c5         1 AVV       0.139300
     28 O3'N        -4.5930     0.4400    -3.0360 oh         1 AVV      -0.719000
     29 C4'A         0.3610    -0.3410    -1.1460 c5         1 AVV       0.158300
     30 O4'A         0.8560     0.7510    -0.3290 os         1 AVV      -0.406000
     31 C4'N        -4.0650     0.8640    -0.6330 c5         1 AVV       0.155300
     32 O4'N        -4.8090    -0.2930    -0.1790 os         1 AVV      -0.407000
     33 C5'A         0.5620    -1.7190    -0.4320 c3         1 AVV       0.214600
     34 O5'A        -0.6410    -2.1390     0.2360 os         1 AVV      -0.559400
     35 C5'N        -4.0000     1.9790     0.4670 c3         1 AVV       0.219600
     36 O5'N        -2.7040     2.0360     1.0920 os         1 AVV      -0.561400
     37 HAN6         5.6720     0.1610     4.4690 hn         1 AVV       0.503500
     38 HANA         7.3390     0.0660     4.0110 hn         1 AVV       0.503500
     39 HC1          2.4350     2.0150    -0.8010 h2         1 AVV       0.095700
     40 HC1B        -6.7880    -0.8940    -0.4080 h1         1 AVV       0.034200
     41 HC2          3.0650    -0.8590    -1.5640 h1         1 AVV       0.074700
     42 HO2          4.3520     0.7870    -2.4710 ho         1 AVV       0.498000
     43 HC2A        -6.7940     1.9730    -1.1130 h1         1 AVV       0.062700
     44 HO2A        -8.0680     0.5060    -2.3040 ho         1 AVV       0.501000
     45 HC3          1.1810    -1.1180    -3.0490 h1         1 AVV       0.047700
     46 HO3          1.6410     1.3020    -3.5630 ho         1 AVV       0.501000
     47 HC3A        -4.6880     2.3320    -2.1740 h1         1 AVV       0.052700
     48 HO3A        -5.5190     0.1490    -3.2600 ho         1 AVV       0.500000
     49 HC4         -0.7090    -0.1990    -1.3470 h1         1 AVV       0.092700
     50 HC4A        -3.0450     0.5690    -0.9070 h1         1 AVV       0.086700
     51 HC5          0.8220    -2.4690    -1.1910 h1         1 AVV       0.011200
     52 HC5A         1.4050    -1.6670     0.2680 h1         1 AVV       0.011200
     53 HC5B        -4.2040     2.9480    -0.0050 h1         1 AVV       0.012700
     54 HC5C        -4.7830     1.8250     1.2200 h1         1 AVV       0.012700
     55 HC8          1.5000     0.7550     2.1520 h5         1 AVV       0.158800
     56 HC1A        -6.5340     0.4910     0.6780 h1         1 AVV       0.034200
@<TRIPOS>BOND
     1     1     5 1   
     2     1     8 1   
     3     1    10 1   
     4     1    34 1   
     5     2     6 1   
     6     2     9 1   
     7     2    10 1   
     8     2    36 1   
     9     3     7 1   
    10     4     7 ar  
    11     4    14 ar  
    12     7    11 ar  
    13    11    12 ar  
    14    12    13 ar  
    15    12    18 1   
    16    13    14 ar  
    17    13    16 1   
    18    14    15 1   
    19    15    37 1   
    20    15    38 1   
    21    16    17 2   
    22    17    18 1   
    23    17    55 1   
    24    18    19 1   
    25    19    21 1   
    26    19    30 1   
    27    19    39 1   
    28    20    23 1   
    29    20    32 1   
    30    20    40 1   
    31    20    56 1   
    32    21    22 1   
    33    21    25 1   
    34    21    41 1   
    35    22    42 1   
    36    23    24 1   
    37    23    27 1   
    38    23    43 1   
    39    24    44 1   
    40    25    26 1   
    41    25    29 1   
    42    25    45 1   
    43    26    46 1   
    44    27    28 1   
    45    27    31 1   
    46    27    47 1   
    47    28    48 1   
    48    29    30 1   
    49    29    33 1   
    50    29    49 1   
    51    31    32 1   
    52    31    35 1   
    53    31    50 1   
    54    33    34 1   
    55    33    51 1   
    56    33    52 1   
    57    35    36 1   
    58    35    53 1   
    59    35    54 1   
@<TRIPOS>SUBSTRUCTURE
     1 AVV         1 TEMP              0 ****  ****    0 ROOT
