@<TRIPOS>MOLECULE
AVW
   55    58     1     0     0
SMALL
abcg2


@<TRIPOS>ATOM
      1 PA           4.5640     2.3790     3.4060 p5         1 AVW       1.485800
      2 PN           3.9230     4.2410     1.1610 p5         1 AVW       1.490800
      3 N1A          8.4510     2.5420     8.0420 nb         1 AVW      -0.305000
      4 O1A          3.4450     1.4660     3.0230 o          1 AVW      -0.867000
      5 O1N          4.3670     5.6560     0.9810 o          1 AVW      -0.858000
      6 C2A          7.7740     1.7330     7.2200 ca         1 AVW       0.201900
      7 O2A          4.7950     2.6870     4.8510 o          1 AVW      -0.867000
      8 O2N          4.2340     3.2020     0.1400 o          1 AVW      -0.858000
      9 O3           4.4780     3.8040     2.6380 os         1 AVW      -0.717800
     10 N3A          8.1630     1.2340     6.0490 nb         1 AVW      -0.175000
     11 C4A          9.3960     1.6330     5.7160 ca         1 AVW       0.158500
     12 C5A         10.2150     2.4710     6.4720 ca         1 AVW      -0.110600
     13 C6A          9.6920     2.9340     7.6950 ca         1 AVW       0.434900
     14 N6A         10.3760     3.7420     8.5190 nv         1 AVW      -1.090900
     15 N7A         11.4240     2.6840     5.8300 nc         1 AVW      -0.583100
     16 C8A         11.3290     1.9980     4.7210 cd         1 AVW       0.413700
     17 N9A         10.1320     1.3300     4.5880 na         1 AVW      -0.286300
     18 C1'A         9.7350     0.5520     3.4370 c5         1 AVW       0.294300
     19 C1'N        -1.0120     3.5560     4.0460 c5         1 AVW       0.122600
     20 C2'A         9.2050    -0.8540     3.7640 c5         1 AVW       0.092300
     21 O2'A        10.2220    -1.8120     3.9270 oh         1 AVW      -0.714000
     22 C2'N        -1.7090     4.8680     3.7680 c5         1 AVW       0.152300
     23 F2'N        -2.6630     4.6900     2.7410 f          1 AVW      -0.272000
     24 C3'A         8.2540    -1.1130     2.5860 c5         1 AVW       0.097300
     25 O3'A         8.9960    -1.5620     1.4510 oh         1 AVW      -0.729000
     26 C3'N        -0.5760     5.7350     3.2410 c5         1 AVW       0.105300
     27 O3'N        -1.0540     6.8420     2.5060 oh         1 AVW      -0.717000
     28 C4'A         7.6880     0.2760     2.3050 c5         1 AVW       0.164300
     29 O4'A         8.6950     1.2200     2.7460 os         1 AVW      -0.410000
     30 C4'N         0.2380     4.7200     2.4270 c5         1 AVW       0.131300
     31 O4'N         0.1150     3.4880     3.1510 os         1 AVW      -0.391000
     32 C5'A         6.3790     0.5260     3.0230 c3         1 AVW       0.218600
     33 O5'A         5.9520     1.8540     2.7290 os         1 AVW      -0.575400
     34 C5'N         1.6890     5.0960     2.2810 c3         1 AVW       0.232600
     35 O5'N         2.3140     4.1870     1.3750 os         1 AVW      -0.588400
     36 HAN6         9.9480     4.0690     9.3690 hn         1 AVW       0.493500
     37 HANA        11.2930     4.0720     8.2720 hn         1 AVW       0.493500
     38 HC1         10.6240     0.4710     2.8050 h2         1 AVW       0.049700
     39 HC1A        -0.6550     3.5220     5.0790 h1         1 AVW       0.047700
     40 HC1B        -1.6780     2.7110     3.8690 h1         1 AVW       0.047700
     41 HC2          8.6390    -0.8230     4.6930 h1         1 AVW       0.125700
     42 HO2         10.6070    -1.9760     3.0530 ho         1 AVW       0.496000
     43 HC2A        -2.2380     5.2870     4.6210 h1         1 AVW       0.047700
     44 HC3          7.4740    -1.8310     2.8390 h1         1 AVW       0.066700
     45 HO3          8.9550    -2.5250     1.4160 ho         1 AVW       0.490000
     46 HC3A         0.0120     6.0620     4.1070 h1         1 AVW       0.045700
     47 HO3A        -0.3560     7.5060     2.4580 ho         1 AVW       0.510000
     48 HC4          7.5510     0.4200     1.2320 h1         1 AVW       0.105700
     49 HC4A        -0.2140     4.6150     1.4340 h1         1 AVW       0.070700
     50 HC5          5.6380    -0.1960     2.6670 h1         1 AVW       0.029700
     51 HC5A         6.5090     0.4020     4.1010 h1         1 AVW       0.029700
     52 HC5B         1.7660     6.1160     1.8930 h1         1 AVW       0.027200
     53 HC5C         2.1770     5.0530     3.2590 h1         1 AVW       0.027200
     54 H1           6.7790     1.4530     7.5510 h5         1 AVW       0.065100
     55 HC8         12.0870     1.9270     3.9550 h5         1 AVW       0.051800
@<TRIPOS>BOND
     1     1     4 1   
     2     1     7 1   
     3     1     9 1   
     4     1    33 1   
     5     2     5 1   
     6     2     8 1   
     7     2     9 1   
     8     2    35 1   
     9     3     6 ar  
    10     3    13 ar  
    11     6    10 ar  
    12     6    54 1   
    13    10    11 ar  
    14    11    12 ar  
    15    11    17 1   
    16    12    13 ar  
    17    12    15 1   
    18    13    14 1   
    19    14    36 1   
    20    14    37 1   
    21    15    16 2   
    22    16    17 1   
    23    16    55 1   
    24    17    18 1   
    25    18    20 1   
    26    18    29 1   
    27    18    38 1   
    28    19    22 1   
    29    19    31 1   
    30    19    39 1   
    31    19    40 1   
    32    20    21 1   
    33    20    24 1   
    34    20    41 1   
    35    21    42 1   
    36    22    23 1   
    37    22    26 1   
    38    22    43 1   
    39    24    25 1   
    40    24    28 1   
    41    24    44 1   
    42    25    45 1   
    43    26    27 1   
    44    26    30 1   
    45    26    46 1   
    46    27    47 1   
    47    28    29 1   
    48    28    32 1   
    49    28    48 1   
    50    30    31 1   
    51    30    34 1   
    52    30    49 1   
    53    32    33 1   
    54    32    50 1   
    55    32    51 1   
    56    34    35 1   
    57    34    52 1   
    58    34    53 1   
@<TRIPOS>SUBSTRUCTURE
     1 AVW         1 TEMP              0 ****  ****    0 ROOT
