@<TRIPOS>MOLECULE
AVW
   55    58     1     0     0
SMALL
No Charge or Current Charge


@<TRIPOS>ATOM
      1 PA           3.1470     1.4160     4.1520 p5         1 AVW       1.485800
      2 PN           3.6140     1.6920     1.5090 p5         1 AVW       1.490800
      3 N1A         10.3180     0.1130     8.7050 nb         1 AVW      -0.305000
      4 O1A          1.9600     0.5550     3.8750 o          1 AVW      -0.867000
      5 O1N          4.6670     2.3860     0.7100 o          1 AVW      -0.858000
      6 C2A          9.1060     0.1220     8.0990 ca         1 AVW       0.201900
      7 O2A          2.8900     2.2550     5.3610 o          1 AVW      -0.867000
      8 O2N          3.8570     0.2210     1.4780 o          1 AVW      -0.858000
      9 O3           3.5610     2.3310     2.9440 os         1 AVW      -0.717800
     10 N3A          8.7960     0.7070     6.9180 nb         1 AVW      -0.175000
     11 C4A          9.8080     1.3450     6.2890 ca         1 AVW       0.158500
     12 C5A         11.0780     1.3880     6.8140 ca         1 AVW      -0.110600
     13 C6A         11.3050     0.7490     8.0530 ca         1 AVW       0.434900
     14 N6A         12.5260     0.7370     8.6560 nv         1 AVW      -1.090900
     15 N7A         11.9710     2.0850     6.0000 nc         1 AVW      -0.583100
     16 C8A         11.1800     2.4460     4.9710 cd         1 AVW       0.413700
     17 N9A          9.8410     2.0350     5.1020 na         1 AVW      -0.286300
     18 C1'A         8.7700     2.2720     4.1420 c5         1 AVW       0.294300
     19 C1'N         0.7830     5.5190     3.4580 c5         1 AVW       0.122600
     20 C2'A         8.3820     1.0570     3.2460 c5         1 AVW       0.092300
     21 O2'A         9.2370     0.8750     2.1060 oh         1 AVW      -0.714000
     22 C2'N        -0.4460     5.8220     2.5380 c5         1 AVW       0.152300
     23 F2'N        -1.6100     5.2260     3.0510 f          1 AVW      -0.272000
     24 C3'A         6.9750     1.5150     2.7800 c5         1 AVW       0.097300
     25 O3'A         7.0750     2.4780     1.7110 oh         1 AVW      -0.729000
     26 C3'N        -0.0360     5.1650     1.1740 c5         1 AVW       0.105300
     27 O3'N        -1.1600     4.6820     0.4120 oh         1 AVW      -0.717000
     28 C4'A         6.4050     2.1220     4.1140 c5         1 AVW       0.164300
     29 O4'A         7.5570     2.6430     4.8340 os         1 AVW      -0.410000
     30 C4'N         0.9040     4.0340     1.6850 c5         1 AVW       0.131300
     31 O4'N         1.7020     4.7550     2.6460 os         1 AVW      -0.391000
     32 C5'A         5.6670     1.0880     5.0190 c3         1 AVW       0.218600
     33 O5'A         4.5000     0.5550     4.3610 os         1 AVW      -0.575400
     34 C5'N         1.7890     3.3860     0.5820 c3         1 AVW       0.232600
     35 O5'N         2.1390     2.0470     0.9680 os         1 AVW      -0.588400
     36 HAN6        12.5690     0.5340     9.6520 hn         1 AVW       0.493500
     37 HANA        13.2330     1.3720     8.2840 hn         1 AVW       0.493500
     38 HC1          9.0900     3.1130     3.5130 h2         1 AVW       0.049700
     39 HC1A         1.2830     6.4340     3.8050 h1         1 AVW       0.047700
     40 HC1B         0.4920     4.9210     4.3330 h1         1 AVW       0.047700
     41 HC2          8.3250     0.1400     3.8520 h1         1 AVW       0.125700
     42 HO2          8.8340     1.4800     1.4320 ho         1 AVW       0.496000
     43 HC2A        -0.6280     6.9000     2.4380 h1         1 AVW       0.047700
     44 HC3          6.3820     0.6490     2.4530 h1         1 AVW       0.066700
     45 HO3          6.1630     2.5010     1.2730 ho         1 AVW       0.490000
     46 HC3A         0.5420     5.8830     0.5730 h1         1 AVW       0.045700
     47 HO3A        -1.9000     4.5600     1.0570 ho         1 AVW       0.510000
     48 HC4          5.7280     2.9610     3.9140 h1         1 AVW       0.105700
     49 HC4A         0.3330     3.2470     2.1990 h1         1 AVW       0.070700
     50 HC5          6.3560     0.2700     5.2640 h1         1 AVW       0.029700
     51 HC5A         5.3910     1.5750     5.9630 h1         1 AVW       0.029700
     52 HC5B         1.2190     3.3510    -0.3570 h1         1 AVW       0.027200
     53 HC5C         2.6750     4.0140     0.4070 h1         1 AVW       0.027200
     54 H1           8.2940    -0.3940     8.6130 h5         1 AVW       0.065100
     55 HC8         11.5040     3.0060     4.1000 h5         1 AVW       0.051800
@<TRIPOS>BOND
     1     1     4 1   
     2     1     7 1   
     3     1     9 1   
     4     1    33 1   
     5     2     5 1   
     6     2     8 1   
     7     2     9 1   
     8     2    35 1   
     9     3     6 ar  
    10     3    13 ar  
    11     6    10 ar  
    12     6    54 1   
    13    10    11 ar  
    14    11    12 ar  
    15    11    17 1   
    16    12    13 ar  
    17    12    15 1   
    18    13    14 1   
    19    14    36 1   
    20    14    37 1   
    21    15    16 2   
    22    16    17 1   
    23    16    55 1   
    24    17    18 1   
    25    18    20 1   
    26    18    29 1   
    27    18    38 1   
    28    19    22 1   
    29    19    31 1   
    30    19    39 1   
    31    19    40 1   
    32    20    21 1   
    33    20    24 1   
    34    20    41 1   
    35    21    42 1   
    36    22    23 1   
    37    22    26 1   
    38    22    43 1   
    39    24    25 1   
    40    24    28 1   
    41    24    44 1   
    42    25    45 1   
    43    26    27 1   
    44    26    30 1   
    45    26    46 1   
    46    27    47 1   
    47    28    29 1   
    48    28    32 1   
    49    28    48 1   
    50    30    31 1   
    51    30    34 1   
    52    30    49 1   
    53    32    33 1   
    54    32    50 1   
    55    32    51 1   
    56    34    35 1   
    57    34    52 1   
    58    34    53 1   
@<TRIPOS>SUBSTRUCTURE
     1 AVW         1 TEMP              0 ****  ****    0 ROOT
