@<TRIPOS>MOLECULE
AVX
   27    29     1     0     0
SMALL
abcg2


@<TRIPOS>ATOM
      1 C1          -0.3730     1.7000    -0.0290 ca         1 AVX      -0.062000
      2 C2          -0.7860     0.3540    -0.0630 ca         1 AVX      -0.110500
      3 C3           0.1580    -0.6660    -0.1050 ca         1 AVX      -0.072000
      4 C4           1.5260    -0.3800    -0.1140 ca         1 AVX      -0.022900
      5 C5           1.9180     0.9330    -0.0820 ca         1 AVX       0.078100
      6 C6           0.9720     1.9470    -0.0410 ca         1 AVX       0.049100
      7 O7           1.6080     3.1390    -0.0070 os         1 AVX      -0.343100
      8 C8           3.0030     2.8720    -0.0750 c5         1 AVX       0.375600
      9 O9           3.1590     1.4540    -0.0780 os         1 AVX      -0.328100
     10 C10         -2.2160     0.0320    -0.0530 cc         1 AVX       0.330500
     11 N11         -3.1190     0.9960    -0.0670 nd         1 AVX      -0.523800
     12 N12         -4.3060     0.3730    -0.0590 na         1 AVX       0.111800
     13 C13         -4.1800    -0.9690    -0.0190 cd         1 AVX       0.205000
     14 C14         -2.8250    -1.2380    -0.0190 cc         1 AVX      -0.276000
     15 BR15         2.8140    -1.7430    -0.1670 br         1 AVX      -0.068100
     16 C16         -5.5370     1.1220    -0.0670 c3         1 AVX       0.068900
     17 N17         -5.2740    -1.8000    -0.0590 nv         1 AVX      -1.047000
     18 H1          -1.0950     2.5040     0.0060 ha         1 AVX       0.153000
     19 H3          -0.1630    -1.6990    -0.1340 ha         1 AVX       0.134000
     20 H8           3.4170     3.2870    -0.9970 h2         1 AVX       0.067200
     21 H8A          3.5060     3.2930     0.7960 h2         1 AVX       0.067200
     22 H14         -2.3640    -2.2120     0.0110 ha         1 AVX       0.146000
     23 H16         -6.2190     0.7200    -0.8150 h1         1 AVX       0.057033
     24 H16A        -6.0280     1.1000     0.9070 h1         1 AVX       0.057033
     25 H16B        -5.3090     2.1530    -0.3190 h1         1 AVX       0.057033
     26 HN17        -6.0410    -1.5310     0.5400 hn         1 AVX       0.448500
     27 HN1A        -5.0380    -2.7680     0.0980 hn         1 AVX       0.448500
@<TRIPOS>BOND
     1     1     2 ar  
     2     1     6 ar  
     3     1    18 1   
     4     2     3 ar  
     5     2    10 1   
     6     3     4 ar  
     7     3    19 1   
     8     4     5 ar  
     9     4    15 1   
    10     5     6 ar  
    11     5     9 1   
    12     6     7 1   
    13     7     8 1   
    14     8     9 1   
    15     8    20 1   
    16     8    21 1   
    17    10    11 2   
    18    10    14 1   
    19    11    12 1   
    20    12    13 1   
    21    12    16 1   
    22    13    14 2   
    23    13    17 1   
    24    14    22 1   
    25    16    23 1   
    26    16    24 1   
    27    16    25 1   
    28    17    26 1   
    29    17    27 1   
@<TRIPOS>SUBSTRUCTURE
     1 AVX         1 TEMP              0 ****  ****    0 ROOT
