@<TRIPOS>MOLECULE
AVX
   27    29     1     0     0
SMALL
No Charge or Current Charge


@<TRIPOS>ATOM
      1 C1          -0.3340     1.7360    -0.0920 ca         1 AVX      -0.062000
      2 C2          -0.8070     0.3960    -0.0580 ca         1 AVX      -0.110500
      3 C3           0.1470    -0.6620    -0.0540 ca         1 AVX      -0.072000
      4 C4           1.5310    -0.3910    -0.0820 ca         1 AVX      -0.022900
      5 C5           1.9490     0.9450    -0.1110 ca         1 AVX       0.078100
      6 C6           1.0460     1.9690    -0.1160 ca         1 AVX       0.049100
      7 O7           1.6440     3.1870    -0.1570 os         1 AVX      -0.343100
      8 C8           3.0760     2.8480    -0.1090 c5         1 AVX       0.375600
      9 O9           3.2330     1.3860    -0.1490 os         1 AVX      -0.328100
     10 C10         -2.2560     0.1220    -0.0310 cc         1 AVX       0.330500
     11 N11         -3.1570     1.0940    -0.0360 nd         1 AVX      -0.523800
     12 N12         -4.3660     0.4060    -0.0040 na         1 AVX       0.111800
     13 C13         -4.1770    -0.9840     0.0200 cd         1 AVX       0.205000
     14 C14         -2.8400    -1.1610     0.0030 cc         1 AVX      -0.276000
     15 Br15         2.8030    -1.8230    -0.0800 br         1 AVX      -0.068100
     16 C16         -5.6470     1.1280     0.0000 c3         1 AVX       0.068900
     17 N17         -5.1850    -1.9120     0.0540 nv         1 AVX      -1.047000
     18 H1          -1.0190     2.5810    -0.1000 ha         1 AVX       0.153000
     19 H3          -0.1710    -1.6990    -0.0300 ha         1 AVX       0.134000
     20 H8           3.5900     3.2970    -0.9670 h2         1 AVX       0.067200
     21 H8A          3.5040     3.2300     0.8260 h2         1 AVX       0.067200
     22 H14         -2.3180    -2.1080     0.0140 ha         1 AVX       0.146000
     23 H16         -6.2400     0.8250    -0.8720 h1         1 AVX       0.057033
     24 H16A        -6.1980     0.8880     0.9170 h1         1 AVX       0.057033
     25 H16B        -5.4690     2.2090    -0.0420 h1         1 AVX       0.057033
     26 HN17        -6.1610    -1.6290     0.1210 hn         1 AVX       0.448500
     27 HN1A        -4.9710    -2.9070     0.1220 hn         1 AVX       0.448500
@<TRIPOS>BOND
     1     1     2 ar  
     2     1     6 ar  
     3     1    18 1   
     4     2     3 ar  
     5     2    10 1   
     6     3     4 ar  
     7     3    19 1   
     8     4     5 ar  
     9     4    15 1   
    10     5     6 ar  
    11     5     9 1   
    12     6     7 1   
    13     7     8 1   
    14     8     9 1   
    15     8    20 1   
    16     8    21 1   
    17    10    11 2   
    18    10    14 1   
    19    11    12 1   
    20    12    13 1   
    21    12    16 1   
    22    13    14 2   
    23    13    17 1   
    24    14    22 1   
    25    16    23 1   
    26    16    24 1   
    27    16    25 1   
    28    17    26 1   
    29    17    27 1   
@<TRIPOS>SUBSTRUCTURE
     1 AVX         1 TEMP              0 ****  ****    0 ROOT
