@<TRIPOS>MOLECULE
AVZ
   41    43     1     0     0
SMALL
No Charge or Current Charge


@<TRIPOS>ATOM
      1 N1          -6.5620    -0.9190    -0.4530 nc         1 AVZ      -0.684000
      2 C2           0.0960    -0.0720     1.1340 ca         1 AVZ      -0.188300
      3 C4          -3.7190    -0.0020     0.5150 c3         1 AVZ       0.091600
      4 C5          -4.4580     0.3830    -0.7750 c3         1 AVZ      -0.099700
      5 C6          -5.9500     0.2880    -0.6260 cc         1 AVZ       0.191300
      6 C            2.1580    -0.9880     0.1960 ca         1 AVZ       0.122000
      7 C11          2.8170     0.2610     0.3720 cp         1 AVZ       0.045000
      8 C12          4.2450     0.4800    -0.0130 cp         1 AVZ      -0.084000
      9 C17          5.2790    -0.3570     0.4770 ca         1 AVZ      -0.081500
     10 C16          6.6200    -0.1330     0.1210 ca         1 AVZ      -0.106000
     11 C15          6.9540     0.9370    -0.7260 ca         1 AVZ      -0.080000
     12 C14          5.9450     1.7850    -1.2130 ca         1 AVZ      -0.106000
     13 C13          4.6040     1.5600    -0.8560 ca         1 AVZ      -0.081500
     14 C10          2.0740     1.3320     0.9250 ca         1 AVZ      -0.092000
     15 C9           0.7310     1.1690     1.3050 ca         1 AVZ      -0.080000
     16 C1           0.8130    -1.1460     0.5760 ca         1 AVZ      -0.082000
     17 C3          -1.3520    -0.2490     1.5330 c3         1 AVZ       0.161900
     18 N           -2.2090     0.1040     0.3360 ny         1 AVZ      -0.824000
     19 C8          -6.8580     1.3100    -0.6400 cd         1 AVZ      -0.186000
     20 N2          -8.0880     0.6920    -0.4650 na         1 AVZ      -0.283500
     21 C7          -7.8630    -0.6680    -0.3560 cd         1 AVZ       0.420400
     22 H2          -4.0350     0.6600     1.3270 hx         1 AVZ       0.107200
     23 H3          -3.9800    -1.0290     0.7880 hx         1 AVZ       0.107200
     24 H4          -4.1820     1.4060    -1.0580 hc         1 AVZ       0.064700
     25 H5          -4.1300    -0.2710    -1.5910 hc         1 AVZ       0.064700
     26 H6           5.0370    -1.1800     1.1450 ha         1 AVZ       0.116000
     27 H7           7.4000    -0.7870     0.5050 ha         1 AVZ       0.126000
     28 H8           7.9920     1.1110    -1.0010 ha         1 AVZ       0.127000
     29 H9           6.2020     2.6160    -1.8660 ha         1 AVZ       0.126000
     30 H10          3.8330     2.2230    -1.2420 ha         1 AVZ       0.116000
     31 H11          2.5530     2.2970     1.0700 ha         1 AVZ       0.145000
     32 H12          0.1880     2.0100     1.7330 ha         1 AVZ       0.122000
     33 H13          0.3280    -2.1080     0.4290 ha         1 AVZ       0.131000
     34 H14         -1.5540    -1.2820     1.8320 hx         1 AVZ       0.102700
     35 H15         -1.6110     0.4080     2.3700 hx         1 AVZ       0.102700
     36 H16         -1.9080    -0.4830    -0.4700 hn         1 AVZ       0.499000
     37 H17         -1.9560     1.0640     0.0210 hn         1 AVZ       0.499000
     38 H18         -6.7230     2.3800    -0.7560 h4         1 AVZ       0.169000
     39 H19         -8.9980     1.1360    -0.4230 hn         1 AVZ       0.373000
     40 H20         -8.6650    -1.3840    -0.2130 h5         1 AVZ       0.075100
     41 Cl           2.9650    -2.3710    -0.5450 cl         1 AVZ      -0.148000
@<TRIPOS>BOND
     1     1     5 1   
     2     1    21 2   
     3     2    15 ar  
     4     2    16 ar  
     5     2    17 1   
     6     3     4 1   
     7     3    18 1   
     8     3    22 1   
     9     3    23 1   
    10     4     5 1   
    11     4    24 1   
    12     4    25 1   
    13     5    19 2   
    14     6     7 ar  
    15     6    16 ar  
    16     6    41 1   
    17     7     8 1   
    18     7    14 ar  
    19     8     9 ar  
    20     8    13 ar  
    21     9    10 ar  
    22     9    26 1   
    23    10    11 ar  
    24    10    27 1   
    25    11    12 ar  
    26    11    28 1   
    27    12    13 ar  
    28    12    29 1   
    29    13    30 1   
    30    14    15 ar  
    31    14    31 1   
    32    15    32 1   
    33    16    33 1   
    34    17    18 1   
    35    17    34 1   
    36    17    35 1   
    37    18    36 1   
    38    18    37 1   
    39    19    20 1   
    40    19    38 1   
    41    20    21 1   
    42    20    39 1   
    43    21    40 1   
@<TRIPOS>SUBSTRUCTURE
     1 AVZ         1 TEMP              0 ****  ****    0 ROOT
