@<TRIPOS>MOLECULE
AVZ
   41    43     1     0     0
SMALL
abcg2


@<TRIPOS>ATOM
      1 N1          -6.4450    -0.9880    -0.3380 nc         1 AVZ      -0.684000
      2 C2           0.0890     0.0200     1.0100 ca         1 AVZ      -0.188300
      3 C4          -3.6710     0.1110     0.4170 c3         1 AVZ       0.091600
      4 C5          -4.4730     0.4670    -0.8250 c3         1 AVZ      -0.099700
      5 C6          -5.9280     0.2550    -0.5840 cc         1 AVZ       0.191300
      6 C            2.1030    -0.9120     0.0860 ca         1 AVZ       0.122000
      7 C11          2.8120     0.2630     0.3410 cp         1 AVZ       0.045000
      8 C12          4.2430     0.4370     0.0110 cp         1 AVZ      -0.084000
      9 C17          5.2160    -0.4120     0.5360 ca         1 AVZ      -0.081500
     10 C16          6.5560    -0.2090     0.2450 ca         1 AVZ      -0.106000
     11 C15          6.9430     0.8430    -0.5760 ca         1 AVZ      -0.080000
     12 C14          5.9810     1.6950    -1.1000 ca         1 AVZ      -0.106000
     13 C13          4.6390     1.4950    -0.8050 ca         1 AVZ      -0.081500
     14 C10          2.1110     1.3150     0.9300 ca         1 AVZ      -0.092000
     15 C9           0.7710     1.2040     1.2600 ca         1 AVZ      -0.080000
     16 C1           0.7640    -1.0400     0.4160 ca         1 AVZ      -0.082000
     17 C3          -1.3650    -0.1150     1.3430 c3         1 AVZ       0.161900
     18 N           -2.2100     0.2350     0.1620 ny         1 AVZ      -0.824000
     19 C8          -6.9260     1.1890    -0.5460 cd         1 AVZ      -0.186000
     20 N2          -8.0650     0.4900    -0.2770 na         1 AVZ      -0.283500
     21 C7          -7.7290    -0.8070    -0.1590 cd         1 AVZ       0.420400
     22 H2          -3.9070     0.7760     1.2460 hx         1 AVZ       0.107200
     23 H3          -3.8530    -0.9170     0.7250 hx         1 AVZ       0.107200
     24 H4          -4.2930     1.5090    -1.0990 hc         1 AVZ       0.064700
     25 H5          -4.1370    -0.1500    -1.6640 hc         1 AVZ       0.064700
     26 H6           4.9290    -1.2290     1.1860 ha         1 AVZ       0.116000
     27 H7           7.3010    -0.8740     0.6640 ha         1 AVZ       0.126000
     28 H8           7.9890     0.9980    -0.8050 ha         1 AVZ       0.127000
     29 H9           6.2720     2.5170    -1.7400 ha         1 AVZ       0.126000
     30 H10          3.8930     2.1600    -1.2220 ha         1 AVZ       0.116000
     31 H11          2.6380     2.2360     1.1470 ha         1 AVZ       0.145000
     32 H12          0.2620     2.0380     1.7260 ha         1 AVZ       0.122000
     33 H13          0.2450    -1.9670     0.2080 ha         1 AVZ       0.131000
     34 H14         -1.6240    -1.1350     1.6210 hx         1 AVZ       0.102700
     35 H15         -1.6590     0.5530     2.1500 hx         1 AVZ       0.102700
     36 H16         -1.9530    -0.3630    -0.6260 hn         1 AVZ       0.499000
     37 H17         -1.9950     1.1880    -0.1360 hn         1 AVZ       0.499000
     38 H18         -6.9170     2.2570    -0.6860 h4         1 AVZ       0.169000
     39 H19         -8.9920     0.8740    -0.1850 hn         1 AVZ       0.373000
     40 H20         -8.4540    -1.5760     0.0570 h5         1 AVZ       0.075100
     41 CL           2.8700    -2.2530    -0.6970 cl         1 AVZ      -0.148000
@<TRIPOS>BOND
     1     1     5 1   
     2     1    21 2   
     3     2    15 ar  
     4     2    16 ar  
     5     2    17 1   
     6     3     4 1   
     7     3    18 1   
     8     3    22 1   
     9     3    23 1   
    10     4     5 1   
    11     4    24 1   
    12     4    25 1   
    13     5    19 2   
    14     6     7 ar  
    15     6    16 ar  
    16     6    41 1   
    17     7     8 1   
    18     7    14 ar  
    19     8     9 ar  
    20     8    13 ar  
    21     9    10 ar  
    22     9    26 1   
    23    10    11 ar  
    24    10    27 1   
    25    11    12 ar  
    26    11    28 1   
    27    12    13 ar  
    28    12    29 1   
    29    13    30 1   
    30    14    15 ar  
    31    14    31 1   
    32    15    32 1   
    33    16    33 1   
    34    17    18 1   
    35    17    34 1   
    36    17    35 1   
    37    18    36 1   
    38    18    37 1   
    39    19    20 1   
    40    19    38 1   
    41    20    21 1   
    42    20    39 1   
    43    21    40 1   
@<TRIPOS>SUBSTRUCTURE
     1 AVZ         1 TEMP              0 ****  ****    0 ROOT
