@<TRIPOS>MOLECULE
AW0
   70    73     1     0     0
SMALL
bcc


@<TRIPOS>ATOM
      1 N1          -7.5650     1.9810     2.2880 nb         1 AW0      -0.829000
      2 C2          -7.1080     0.8170     2.7410 ca         1 AW0       0.710900
      3 N3          -6.2470    -0.0060     2.1680 nb         1 AW0      -0.742000
      4 C4          -5.8280     0.4590     0.9940 ca         1 AW0       0.473800
      5 C5          -6.2070     1.6500     0.3970 ca         1 AW0      -0.234200
      6 C6          -7.1330     2.4360     1.1060 ca         1 AW0       0.780200
      7 N6          -7.5830     3.6070     0.6540 nv         1 AW0      -0.954500
      8 N7          -5.5750     1.8120    -0.8100 nc         1 AW0      -0.553100
      9 C8          -4.8410     0.7480    -0.9350 cd         1 AW0       0.404700
     10 N9          -4.9490    -0.1170     0.1210 na         1 AW0      -0.255000
     11 CAB         -0.6260     1.6970     0.0500 c3         1 AW0      -0.102600
     12 CAC         -0.3370     1.4530    -2.4550 c3         1 AW0      -0.102600
     13 OAE          6.1640    -1.2080    -0.8610 o          1 AW0      -0.624100
     14 OAF         -3.3180    -4.1290     0.3750 oh         1 AW0      -0.580800
     15 OAG         -5.6180    -3.0340    -0.7090 oh         1 AW0      -0.570800
     16 CAI         10.1910    -0.0810    -0.1340 ca         1 AW0      -0.102000
     17 CAJ          9.9130     1.2990     1.7790 ca         1 AW0      -0.102000
     18 CAK          8.8190    -0.0900    -0.3530 ca         1 AW0      -0.164000
     19 CAL          8.5440     1.2940     1.5830 ca         1 AW0      -0.164000
     20 CAN          2.0560    -0.1330    -0.5530 c3         1 AW0      -0.100400
     21 CAO          3.4430    -0.6210    -0.9420 c3         1 AW0       0.115000
     22 CAP          0.9860    -0.8790    -1.3380 c3         1 AW0       0.199800
     23 NAU          4.4530     0.1310    -0.2310 ns         1 AW0      -0.590900
     24 NAV          6.5870     0.6810     0.3620 ns         1 AW0      -0.492100
     25 OAW         -2.8760    -1.1230     0.4240 os         1 AW0      -0.392600
     26 CAX          5.7630    -0.2040    -0.2900 c          1 AW0       0.793100
     27 CAY         10.7710     0.6070     0.9260 ca         1 AW0      -0.103300
     28 CBA          7.9720     0.5990     0.5140 ca         1 AW0       0.084600
     29 CBD         -0.8480     0.8050    -1.1670 c3         1 AW0       0.207500
     30 CBE         -3.1520    -3.2010    -0.6670 c5         1 AW0       0.086100
     31 CBF         -4.4100    -2.3470    -0.8400 c5         1 AW0       0.058100
     32 CBG         -2.1290    -2.1530    -0.2400 c5         1 AW0       0.138100
     33 CBH         -4.2500    -1.3600     0.3140 c5         1 AW0       0.261800
     34 H2          -7.4960     0.5070     3.7050 h5         1 AW0       0.047100
     35 HN6         -8.2840     4.1120     1.1690 hn         1 AW0       0.450800
     36 HN6A        -7.3220     3.9490    -0.2540 hn         1 AW0       0.450800
     37 H8          -4.1980     0.5400    -1.7770 h5         1 AW0       0.060800
     38 HAA         12.6840     1.5960     0.8790 hc         1 AW0       0.039700
     39 HAAA        12.5150     0.4300     2.1800 hc         1 AW0       0.039700
     40 HAAB        12.7560    -0.1250     0.5260 hc         1 AW0       0.039700
     41 HAB         -1.1320     2.6540    -0.0900 hc         1 AW0       0.038200
     42 HABA        -1.0410     1.2240     0.9400 hc         1 AW0       0.038200
     43 HABB         0.4250     1.9120     0.2380 hc         1 AW0       0.038200
     44 HAC          0.7360     1.6530    -2.4270 hc         1 AW0       0.038200
     45 HACA        -0.5380     0.8220    -3.3230 hc         1 AW0       0.038200
     46 HACB        -0.8390     2.4070    -2.6190 hc         1 AW0       0.038200
     47 HOAF        -4.1890    -4.5320     0.2780 ho         1 AW0       0.424000
     48 HOAG        -5.8430    -3.4360    -1.5540 ho         1 AW0       0.416000
     49 HAJ         10.3190     1.8460     2.6220 ha         1 AW0       0.129000
     50 HAK          8.4270    -0.6280    -1.2010 ha         1 AW0       0.142500
     51 HAL          7.9060     1.8370     2.2720 ha         1 AW0       0.142500
     52 HAN          1.8930    -0.2760     0.5180 hc         1 AW0       0.054200
     53 HANA         1.9980     0.9410    -0.7470 hc         1 AW0       0.054200
     54 HAO          3.5430    -1.6820    -0.7040 h1         1 AW0       0.050700
     55 HAOA         3.5720    -0.5250    -2.0260 h1         1 AW0       0.050700
     56 HAP          1.1680    -0.7340    -2.4160 h1         1 AW0       0.028200
     57 HAPA         1.1350    -1.9460    -1.1510 h1         1 AW0       0.028200
     58 HNAU         4.1920     1.0420     0.1110 hn         1 AW0       0.307500
     59 HNAV         6.1420     1.3930     0.9200 hn         1 AW0       0.309500
     60 HBD         -1.9310     0.7320    -1.2730 h1         1 AW0       0.043700
     61 HBE         -2.8620    -3.6920    -1.6050 h1         1 AW0       0.053700
     62 HBF         -4.3490    -1.8180    -1.7990 h1         1 AW0       0.049700
     63 HBG         -1.4250    -2.5840     0.4790 h1         1 AW0       0.101700
     64 HBH         -4.6590    -1.7920     1.2350 h2         1 AW0       0.121700
     65 CAQ         -1.3280    -1.5790    -1.3990 c3         1 AW0       0.182800
     66 NBI         -0.3810    -0.5690    -0.9550 n3         1 AW0      -0.757600
     67 HAI         10.8240    -0.6290    -0.8230 ha         1 AW0       0.129000
     68 CAA         12.2570     0.6250     1.1380 c3         1 AW0      -0.040800
     69 HAQ         -0.7990    -2.4150    -1.8630 h1         1 AW0       0.033700
     70 HAQA        -1.9990    -1.1920    -2.1780 h1         1 AW0       0.033700
@<TRIPOS>BOND
     1     1     2 ar  
     2     1     6 ar  
     3     2     3 ar  
     4     2    34 1   
     5     3     4 ar  
     6     4     5 ar  
     7     4    10 1   
     8     5     6 ar  
     9     5     8 1   
    10     6     7 1   
    11     7    35 1   
    12     7    36 1   
    13     8     9 2   
    14     9    10 1   
    15     9    37 1   
    16    10    33 1   
    17    11    29 1   
    18    11    41 1   
    19    11    42 1   
    20    11    43 1   
    21    12    29 1   
    22    12    44 1   
    23    12    45 1   
    24    12    46 1   
    25    13    26 2   
    26    14    30 1   
    27    14    47 1   
    28    15    31 1   
    29    15    48 1   
    30    16    18 ar  
    31    16    27 ar  
    32    16    67 1   
    33    17    19 ar  
    34    17    27 ar  
    35    17    49 1   
    36    18    28 ar  
    37    18    50 1   
    38    19    28 ar  
    39    19    51 1   
    40    20    21 1   
    41    20    22 1   
    42    20    52 1   
    43    20    53 1   
    44    21    23 1   
    45    21    54 1   
    46    21    55 1   
    47    22    56 1   
    48    22    57 1   
    49    22    66 1   
    50    23    26 1   
    51    23    58 1   
    52    24    26 1   
    53    24    28 1   
    54    24    59 1   
    55    25    32 1   
    56    25    33 1   
    57    27    68 1   
    58    29    60 1   
    59    29    66 1   
    60    30    31 1   
    61    30    32 1   
    62    30    61 1   
    63    31    33 1   
    64    31    62 1   
    65    32    63 1   
    66    32    65 1   
    67    33    64 1   
    68    38    68 1   
    69    39    68 1   
    70    40    68 1   
    71    65    66 1   
    72    65    69 1   
    73    65    70 1   
@<TRIPOS>SUBSTRUCTURE
     1 AW0         1 TEMP              0 ****  ****    0 ROOT
