@<TRIPOS>MOLECULE
AW0
   70    73     1     0     0
SMALL
No Charge or Current Charge


@<TRIPOS>ATOM
      1 N1          -8.6310     1.4720     0.8110 nb         1 AW0      -0.303000
      2 C2          -8.2960     0.2550     1.3010 ca         1 AW0       0.184900
      3 N3          -7.1540    -0.4290     1.0540 nb         1 AW0      -0.216000
      4 C4          -6.2690     0.1760     0.2360 ca         1 AW0       0.145500
      5 C5          -6.5110     1.4100    -0.3130 ca         1 AW0      -0.103600
      6 C6          -7.7290     2.0490     0.0030 ca         1 AW0       0.451900
      7 N6          -8.0650     3.2690    -0.4930 nv         1 AW0      -1.064900
      8 N7          -5.4730     1.8410    -1.1310 nc         1 AW0      -0.553100
      9 C8          -4.6040     0.8170    -1.0390 cd         1 AW0       0.404700
     10 N9          -5.0420    -0.2340    -0.2150 na         1 AW0      -0.284300
     11 CAB          0.8310     0.7360     1.8780 c3         1 AW0      -0.102600
     12 CAC         -0.9160     1.7740     0.3250 c3         1 AW0      -0.102600
     13 OAE          5.4940    -0.9450    -0.8030 o          1 AW0      -0.624100
     14 OAF         -3.2860    -4.2020     0.3450 oh         1 AW0      -0.703000
     15 OAG         -5.0860    -3.2680    -1.5370 oh         1 AW0      -0.693000
     16 CAI          9.5530    -0.9040     0.9680 ca         1 AW0      -0.084000
     17 CAJ         10.2410     1.3860     0.5560 ca         1 AW0      -0.084000
     18 CAK          8.3130    -0.6450     0.3580 ca         1 AW0      -0.146000
     19 CAL          9.0010     1.6460    -0.0530 ca         1 AW0      -0.146000
     20 CAN          2.3950     0.4280    -0.8910 c3         1 AW0      -0.100400
     21 CAO          3.3670     0.4930    -2.0850 c3         1 AW0       0.115000
     22 CAP          0.9860    -0.0440    -1.3060 c3         1 AW0       0.199800
     23 NAU          4.6890     0.9900    -1.6950 ns         1 AW0      -0.523900
     24 NAV          6.7950     0.9760    -0.7880 ns         1 AW0      -0.166000
     25 OAW         -3.0600    -1.1700     0.6960 os         1 AW0      -0.439000
     26 CAX          5.6550     0.2380    -1.0660 c          1 AW0       0.659100
     27 CAY         10.5230     0.1090     1.0720 ca         1 AW0      -0.103300
     28 CBA          8.0250     0.6370    -0.1600 ca         1 AW0      -0.008000
     29 CBD         -0.2910     0.4600     0.8510 c3         1 AW0       0.207500
     30 CBE         -2.8150    -3.1950    -0.5620 c5         1 AW0       0.109300
     31 CBF         -4.0090    -2.3940    -1.1450 c5         1 AW0       0.081300
     32 CBG         -2.0280    -2.0390     0.1420 c5         1 AW0       0.161300
     33 CBH         -4.3340    -1.4740     0.0810 c5         1 AW0       0.314300
     34 H2          -9.0190    -0.2230     1.9590 h5         1 AW0       0.047100
     35 HN6         -9.0460     3.5360    -0.4770 hn         1 AW0       0.506000
     36 HN6A        -7.5080     3.6210    -1.2680 hn         1 AW0       0.506000
     37 H8          -3.6480     0.7640    -1.5460 h5         1 AW0       0.060800
     38 HAA         12.5940    -0.5300     0.9900 hc         1 AW0       0.039700
     39 HAAA        12.2780     0.7230     2.2020 hc         1 AW0       0.039700
     40 HAAB        11.7760    -0.9440     2.5060 hc         1 AW0       0.039700
     41 HAB          0.3940     1.0910     2.8180 hc         1 AW0       0.038200
     42 HABA         1.3920    -0.1810     2.0970 hc         1 AW0       0.038200
     43 HABB         1.5280     1.5080     1.5410 hc         1 AW0       0.038200
     44 HAC         -0.1830     2.3660    -0.2340 hc         1 AW0       0.038200
     45 HACA        -1.7700     1.5710    -0.3300 hc         1 AW0       0.038200
     46 HACB        -1.2760     2.3840     1.1620 hc         1 AW0       0.038200
     47 HOAF        -4.1400    -4.5020    -0.0560 ho         1 AW0       0.523000
     48 HOAG        -5.7460    -2.7270    -2.0350 ho         1 AW0       0.515000
     49 HAJ         10.9820     2.1790     0.6260 ha         1 AW0       0.111000
     50 HAK          7.5920    -1.4530     0.3000 ha         1 AW0       0.124500
     51 HAL          8.8000     2.6400    -0.4460 ha         1 AW0       0.124500
     52 HAN          2.7990    -0.2510    -0.1320 hc         1 AW0       0.054200
     53 HANA         2.3320     1.4300    -0.4580 hc         1 AW0       0.054200
     54 HAO          3.4760    -0.5050    -2.5310 h1         1 AW0       0.050700
     55 HAOA         2.9580     1.1620    -2.8530 h1         1 AW0       0.050700
     56 HAP          0.5050     0.7590    -1.8810 h1         1 AW0       0.028200
     57 HAPA         1.1380    -0.8720    -2.0120 h1         1 AW0       0.028200
     58 HNAU         4.9110     1.9600    -1.8810 hn         1 AW0       0.307500
     59 HNAV         6.7460     1.9400    -1.0850 hn         1 AW0       0.143000
     60 HBD         -1.0680    -0.0030     1.4700 h1         1 AW0       0.043700
     61 HBE         -2.2200    -3.6590    -1.3620 h1         1 AW0       0.053700
     62 HBF         -3.6780    -1.7910    -2.0030 h1         1 AW0       0.049700
     63 HBG         -1.4010    -2.4350     0.9520 h1         1 AW0       0.101700
     64 HBH         -4.9520    -2.0280     0.8000 h2         1 AW0       0.121700
     65 CAQ         -1.1090    -1.2280    -0.8300 c3         1 AW0       0.182800
     66 NBI          0.0700    -0.5250    -0.2250 n3         1 AW0      -0.757600
     67 HAI          9.7600    -1.8980     1.3600 ha         1 AW0       0.111000
     68 CAA         11.8650    -0.1760     1.7290 c3         1 AW0      -0.040800
     69 HAQ         -0.7320    -1.9480    -1.5690 h1         1 AW0       0.033700
     70 HAQA        -1.7270    -0.5150    -1.3900 h1         1 AW0       0.033700
@<TRIPOS>BOND
     1     1     2 ar  
     2     1     6 ar  
     3     2     3 ar  
     4     2    34 1   
     5     3     4 ar  
     6     4     5 ar  
     7     4    10 1   
     8     5     6 ar  
     9     5     8 1   
    10     6     7 1   
    11     7    35 1   
    12     7    36 1   
    13     8     9 2   
    14     9    10 1   
    15     9    37 1   
    16    10    33 1   
    17    11    29 1   
    18    11    41 1   
    19    11    42 1   
    20    11    43 1   
    21    12    29 1   
    22    12    44 1   
    23    12    45 1   
    24    12    46 1   
    25    13    26 2   
    26    14    30 1   
    27    14    47 1   
    28    15    31 1   
    29    15    48 1   
    30    16    18 ar  
    31    16    27 ar  
    32    16    67 1   
    33    17    19 ar  
    34    17    27 ar  
    35    17    49 1   
    36    18    28 ar  
    37    18    50 1   
    38    19    28 ar  
    39    19    51 1   
    40    20    21 1   
    41    20    22 1   
    42    20    52 1   
    43    20    53 1   
    44    21    23 1   
    45    21    54 1   
    46    21    55 1   
    47    22    56 1   
    48    22    57 1   
    49    22    66 1   
    50    23    26 1   
    51    23    58 1   
    52    24    26 1   
    53    24    28 1   
    54    24    59 1   
    55    25    32 1   
    56    25    33 1   
    57    27    68 1   
    58    29    60 1   
    59    29    66 1   
    60    30    31 1   
    61    30    32 1   
    62    30    61 1   
    63    31    33 1   
    64    31    62 1   
    65    32    63 1   
    66    32    65 1   
    67    33    64 1   
    68    38    68 1   
    69    39    68 1   
    70    40    68 1   
    71    65    66 1   
    72    65    69 1   
    73    65    70 1   
@<TRIPOS>SUBSTRUCTURE
     1 AW0         1 TEMP              0 ****  ****    0 ROOT
