@<TRIPOS>MOLECULE
AW1
   79    82     1     0     0
SMALL
bcc


@<TRIPOS>ATOM
      1 N1          -9.8810     0.7290     1.4030 nb         1 AW1      -0.829000
      2 C2          -9.1590    -0.0990     2.1530 ca         1 AW1       0.708900
      3 N3          -7.9050    -0.4800     1.9820 nb         1 AW1      -0.745000
      4 C4          -7.3650     0.0820     0.9020 ca         1 AW1       0.452800
      5 C5          -7.9870     0.9580     0.0260 ca         1 AW1      -0.232200
      6 C6          -9.3240     1.2850     0.3200 ca         1 AW1       0.779200
      7 N6         -10.0430     2.1240    -0.4250 nv         1 AW1      -0.953500
      8 N7          -7.1290     1.3330    -0.9740 nc         1 AW1      -0.556100
      9 C8          -6.0240     0.7000    -0.7060 cd         1 AW1       0.407700
     10 N9          -6.1000    -0.0730     0.4190 na         1 AW1      -0.276000
     11 CAA         -1.2770     2.2090     0.5550 c3         1 AW1      -0.101600
     12 CAB         -1.3080     2.3600    -1.9750 c3         1 AW1      -0.101600
     13 OAG          5.1280    -1.0250    -1.3630 o          1 AW1      -0.624100
     14 OAH         -3.6950    -3.6220    -0.9650 oh         1 AW1      -0.584800
     15 OAI         -4.7150    -3.2050     1.5510 oh         1 AW1      -0.577800
     16 CAK          7.9100    -0.2340    -0.8940 ca         1 AW1      -0.166000
     17 CAL          7.8770     0.7940     1.2650 ca         1 AW1      -0.166000
     18 CAM          9.2790    -0.4040    -0.7650 ca         1 AW1      -0.101500
     19 CAN          9.2500     0.6220     1.3700 ca         1 AW1      -0.101500
     20 CAP          1.1730     0.3620    -0.5940 c3         1 AW1      -0.100400
     21 CAQ          2.4730    -0.2190    -1.1280 c3         1 AW1       0.116000
     22 CAR         -0.0150    -0.1850    -1.3740 c3         1 AW1       0.198800
     23 NAW          3.5990     0.3470    -0.4170 ns         1 AW1      -0.592900
     24 NAX          5.8090     0.6150     0.0850 ns         1 AW1      -0.491100
     25 OAY         -3.8190    -0.4650     0.6310 os         1 AW1      -0.390600
     26 CAZ          4.8630    -0.0880    -0.6230 c          1 AW1       0.792100
     27 CBB          7.1820     0.3670     0.1350 ca         1 AW1       0.083600
     28 CBC          9.9900     0.0110     0.3620 ca         1 AW1      -0.090300
     29 CBF         -1.7080     1.5410    -0.7470 c3         1 AW1       0.204500
     30 CBG         -4.2330    -2.3640    -0.6650 c5         1 AW1       0.065100
     31 CBH         -5.1930    -2.3730     0.5300 c5         1 AW1       0.078100
     32 CBI         -3.1360    -1.4200    -0.1830 c5         1 AW1       0.136100
     33 CBJ         -5.0790    -0.9270     1.0120 c5         1 AW1       0.262800
     34 CBM         11.4980    -0.1970     0.4400 c3         1 AW1       0.005300
     35 H2          -9.6710    -0.5140     3.0140 h5         1 AW1       0.047100
     36 HN6        -11.0110     2.2900    -0.2090 hn         1 AW1       0.451300
     37 HN6A        -9.6720     2.5110    -1.2760 hn         1 AW1       0.451300
     38 H8          -5.1210     0.7690    -1.2920 h5         1 AW1       0.067800
     39 HAA         -1.6990     3.2140     0.6210 hc         1 AW1       0.037367
     40 HAAA        -1.6430     1.6360     1.4070 hc         1 AW1       0.037367
     41 HAAB        -0.1960     2.3040     0.6510 hc         1 AW1       0.037367
     42 HAB         -0.2290     2.5030    -2.0560 hc         1 AW1       0.037367
     43 HABA        -1.6520     1.8890    -2.8980 hc         1 AW1       0.037367
     44 HABB        -1.7620     3.3510    -1.9220 hc         1 AW1       0.037367
     45 HAC         11.9180     1.3090     1.9680 hc         1 AW1       0.034700
     46 HACA        11.6250    -0.3080     2.6200 hc         1 AW1       0.034700
     47 HACB        13.1440     0.0600     1.8110 hc         1 AW1       0.034700
     48 HAD         11.9720     1.6900    -0.5440 hc         1 AW1       0.034700
     49 HADA        13.2620     0.4890    -0.6270 hc         1 AW1       0.034700
     50 HADB        11.8410     0.3290    -1.6580 hc         1 AW1       0.034700
     51 HAE         12.9040    -1.8430     0.3000 hc         1 AW1       0.034700
     52 HAEA        11.3530    -2.2960     1.0130 hc         1 AW1       0.034700
     53 HAEB        11.4930    -2.0520    -0.7290 hc         1 AW1       0.034700
     54 HOAH        -4.3050    -4.0940    -1.5410 ho         1 AW1       0.418000
     55 HOAI        -4.3160    -3.9800     1.1350 ho         1 AW1       0.426000
     56 HAL          7.3400     1.2670     2.0790 ha         1 AW1       0.141500
     57 HAM          9.8030    -0.8750    -1.5890 ha         1 AW1       0.129500
     58 HAN          9.7310     0.9770     2.2710 ha         1 AW1       0.129500
     59 HAP          1.0610     0.1150     0.4650 hc         1 AW1       0.053700
     60 HAPA         1.2200     1.4510    -0.6700 hc         1 AW1       0.053700
     61 HAQ          2.4700    -1.3040    -1.0030 h1         1 AW1       0.051200
     62 HAQA         2.5500    -0.0230    -2.2030 h1         1 AW1       0.051200
     63 HAR          0.0790     0.1250    -2.4270 h1         1 AW1       0.029700
     64 HARA         0.0760    -1.2740    -1.3760 h1         1 AW1       0.029700
     65 HNAW         3.4460     1.2090     0.0820 hn         1 AW1       0.308500
     66 HNAX         5.4680     1.2480     0.7920 hn         1 AW1       0.308500
     67 HBF         -2.7990     1.5430    -0.7230 h1         1 AW1       0.049700
     68 HBG         -4.7450    -1.9310    -1.5360 h1         1 AW1       0.052700
     69 HBH         -6.2220    -2.6260     0.2450 h1         1 AW1       0.074700
     70 HBI         -2.4210    -1.9730     0.4390 h1         1 AW1       0.089700
     71 HBJ         -5.2090    -0.8600     2.0960 h2         1 AW1       0.128700
     72 CAS         -2.3690    -0.7380    -1.3000 c3         1 AW1       0.193800
     73 NBK         -1.3150     0.1280    -0.8050 n3         1 AW1      -0.758600
     74 HAK          7.4230    -0.5680    -1.7960 ha         1 AW1       0.141500
     75 CAC         12.0690     0.2430     1.7890 c3         1 AW1      -0.082767
     76 CAD         12.1780     0.6250    -0.6630 c3         1 AW1      -0.082767
     77 CAE         11.8250    -1.6830     0.2420 c3         1 AW1      -0.082767
     78 HAS         -1.9460    -1.5400    -1.9110 h1         1 AW1       0.039700
     79 HASA        -3.0650    -0.2070    -1.9650 h1         1 AW1       0.039700
@<TRIPOS>BOND
     1     1     2 ar  
     2     1     6 ar  
     3     2     3 ar  
     4     2    35 1   
     5     3     4 ar  
     6     4     5 ar  
     7     4    10 1   
     8     5     6 ar  
     9     5     8 1   
    10     6     7 1   
    11     7    36 1   
    12     7    37 1   
    13     8     9 2   
    14     9    10 1   
    15     9    38 1   
    16    10    33 1   
    17    11    29 1   
    18    11    39 1   
    19    11    40 1   
    20    11    41 1   
    21    12    29 1   
    22    12    42 1   
    23    12    43 1   
    24    12    44 1   
    25    13    26 2   
    26    14    30 1   
    27    14    54 1   
    28    15    31 1   
    29    15    55 1   
    30    16    18 ar  
    31    16    27 ar  
    32    16    74 1   
    33    17    19 ar  
    34    17    27 ar  
    35    17    56 1   
    36    18    28 ar  
    37    18    57 1   
    38    19    28 ar  
    39    19    58 1   
    40    20    21 1   
    41    20    22 1   
    42    20    59 1   
    43    20    60 1   
    44    21    23 1   
    45    21    61 1   
    46    21    62 1   
    47    22    63 1   
    48    22    64 1   
    49    22    73 1   
    50    23    26 1   
    51    23    65 1   
    52    24    26 1   
    53    24    27 1   
    54    24    66 1   
    55    25    32 1   
    56    25    33 1   
    57    28    34 1   
    58    29    67 1   
    59    29    73 1   
    60    30    31 1   
    61    30    32 1   
    62    30    68 1   
    63    31    33 1   
    64    31    69 1   
    65    32    70 1   
    66    32    72 1   
    67    33    71 1   
    68    34    75 1   
    69    34    76 1   
    70    34    77 1   
    71    45    75 1   
    72    46    75 1   
    73    47    75 1   
    74    48    76 1   
    75    49    76 1   
    76    50    76 1   
    77    51    77 1   
    78    52    77 1   
    79    53    77 1   
    80    72    73 1   
    81    72    78 1   
    82    72    79 1   
@<TRIPOS>SUBSTRUCTURE
     1 AW1         1 TEMP              0 ****  ****    0 ROOT
