@<TRIPOS>MOLECULE
AW1
   79    82     1     0     0
SMALL
No Charge or Current Charge


@<TRIPOS>ATOM
      1 N1         -10.5760     0.5920    -1.2020 nb         1 AW1      -0.303000
      2 C2         -10.2300    -0.0210    -0.0450 ca         1 AW1       0.182900
      3 N3          -8.9740    -0.2150     0.4240 nb         1 AW1      -0.219000
      4 C4          -7.9760     0.2560    -0.3510 ca         1 AW1       0.124500
      5 C5          -8.2190     0.8930    -1.5420 ca         1 AW1      -0.101600
      6 C6          -9.5610     1.0520    -1.9480 ca         1 AW1       0.450900
      7 N6          -9.9050     1.6650    -3.1120 nv         1 AW1      -1.063900
      8 N7          -7.0490     1.2900    -2.1800 nc         1 AW1      -0.556100
      9 C8          -6.1040     0.8670    -1.3180 cd         1 AW1       0.407700
     10 N9          -6.6180     0.2200    -0.1780 na         1 AW1      -0.305300
     11 CAA         -0.5890     1.6800     2.2800 c3         1 AW1      -0.101600
     12 CAB         -1.8440     2.3260     0.1490 c3         1 AW1      -0.101600
     13 OAG          5.1280    -0.7810    -1.6910 o          1 AW1      -0.624100
     14 OAH         -4.0850    -3.5410     0.3260 oh         1 AW1      -0.707000
     15 OAI         -5.6900    -2.4810     2.2860 oh         1 AW1      -0.700000
     16 CAK          8.1290    -0.4410    -1.1560 ca         1 AW1      -0.148000
     17 CAL          8.3430     0.5920     1.0200 ca         1 AW1      -0.148000
     18 CAM          9.5290    -0.4620    -1.2790 ca         1 AW1      -0.083500
     19 CAN          9.7430     0.5730     0.8990 ca         1 AW1      -0.083500
     20 CAP          1.3690     0.1630     0.2790 c3         1 AW1      -0.100400
     21 CAQ          2.5380    -0.3280    -0.5930 c3         1 AW1       0.116000
     22 CAR         -0.0050    -0.1490    -0.3510 c3         1 AW1       0.198800
     23 NAW          3.8320    -0.0070     0.0080 ns         1 AW1      -0.525900
     24 NAX          6.1130     0.1430     0.1970 ns         1 AW1      -0.165000
     25 OAY         -4.4830     0.0640     0.8280 os         1 AW1      -0.437000
     26 CAZ          5.0440    -0.2590    -0.5890 c          1 AW1       0.658100
     27 CBB          7.5200     0.0880    -0.0010 ca         1 AW1      -0.009000
     28 CBC         10.3660     0.0430    -0.2570 ca         1 AW1      -0.090300
     29 CBF         -1.5550     1.2000     1.1710 c3         1 AW1       0.204500
     30 CBG         -4.5630    -2.1970     0.1320 c5         1 AW1       0.088300
     31 CBH         -5.8440    -1.9290     0.9680 c5         1 AW1       0.101300
     32 CBI         -3.6250    -1.1040     0.7310 c5         1 AW1       0.159300
     33 CBJ         -5.8660    -0.3600     0.9340 c5         1 AW1       0.315300
     34 CBM         11.9080    -0.0010    -0.4380 c3         1 AW1       0.005300
     35 H2         -11.0440    -0.3980     0.5720 h5         1 AW1       0.047100
     36 HN6        -10.8330     1.4870    -3.4870 hn         1 AW1       0.506500
     37 HN6A        -9.1620     1.8210    -3.7880 hn         1 AW1       0.506500
     38 H8          -5.0360     0.9900    -1.4590 h5         1 AW1       0.067800
     39 HAA         -1.1160     2.3610     2.9580 hc         1 AW1       0.037367
     40 HAAA        -0.2250     0.8340     2.8740 hc         1 AW1       0.037367
     41 HAAB         0.2640     2.2320     1.8770 hc         1 AW1       0.037367
     42 HAB         -0.9400     2.5960    -0.4090 hc         1 AW1       0.037367
     43 HABA        -2.6170     2.0250    -0.5660 hc         1 AW1       0.037367
     44 HABB        -2.2020     3.2240     0.6660 hc         1 AW1       0.037367
     45 HAC         12.4190     1.6460     0.9340 hc         1 AW1       0.034700
     46 HACA        12.4620     0.0350     1.6940 hc         1 AW1       0.034700
     47 HACB        13.7630     0.5430     0.6100 hc         1 AW1       0.034700
     48 HAD         11.9550     1.8540    -1.6090 hc         1 AW1       0.034700
     49 HADA        13.3880     0.8320    -1.8330 hc         1 AW1       0.034700
     50 HADB        11.8610     0.3920    -2.6090 hc         1 AW1       0.034700
     51 HAE         13.4520    -1.5410    -0.7140 hc         1 AW1       0.034700
     52 HAEA        12.0600    -2.0800     0.2470 hc         1 AW1       0.034700
     53 HAEB        11.9230    -1.9270    -1.5150 hc         1 AW1       0.034700
     54 HOAH        -4.3990    -4.0840    -0.4380 ho         1 AW1       0.517000
     55 HOAI        -5.0600    -3.2340     2.1530 ho         1 AW1       0.525000
     56 HAL          7.8950     1.0060     1.9210 ha         1 AW1       0.123500
     57 HAM          9.9600    -0.8780    -2.1860 ha         1 AW1       0.111500
     58 HAN         10.3230     0.9770     1.7230 ha         1 AW1       0.111500
     59 HAP          1.4350    -0.3080     1.2660 hc         1 AW1       0.053700
     60 HAPA         1.4770     1.2440     0.4040 hc         1 AW1       0.053700
     61 HAQ          2.4700    -1.4160    -0.7240 h1         1 AW1       0.051200
     62 HAQA         2.4800     0.1430    -1.5840 h1         1 AW1       0.051200
     63 HAR         -0.1580     0.5180    -1.2100 h1         1 AW1       0.029700
     64 HARA         0.0790    -1.1620    -0.7680 h1         1 AW1       0.029700
     65 HNAW         3.8480     0.4260     0.9230 hn         1 AW1       0.308500
     66 HNAX         5.8450     0.5560     1.0800 hn         1 AW1       0.142000
     67 HBF         -2.4900     1.0580     1.7240 h1         1 AW1       0.049700
     68 HBG         -4.7440    -1.9980    -0.9350 h1         1 AW1       0.052700
     69 HBH         -6.7360    -2.3470     0.4790 h1         1 AW1       0.074700
     70 HBI         -3.3000    -1.3910     1.7410 h1         1 AW1       0.089700
     71 HBJ         -6.3220     0.0370     1.8510 h2         1 AW1       0.128700
     72 CAS         -2.3570    -0.8060    -0.1260 c3         1 AW1       0.193800
     73 NBK         -1.2010    -0.1220     0.5490 n3         1 AW1      -0.758600
     74 HAK          7.5380    -0.8420    -1.9720 ha         1 AW1       0.123500
     75 CAC         12.6800     0.5920     0.7750 c3         1 AW1      -0.082767
     76 CAD         12.2990     0.8160    -1.6980 c3         1 AW1      -0.082767
     77 CAE         12.3610    -1.4750    -0.6170 c3         1 AW1      -0.082767
     78 HAS         -2.0090    -1.7810    -0.4950 h1         1 AW1       0.039700
     79 HASA        -2.6700    -0.2410    -1.0140 h1         1 AW1       0.039700
@<TRIPOS>BOND
     1     1     2 ar  
     2     1     6 ar  
     3     2     3 ar  
     4     2    35 1   
     5     3     4 ar  
     6     4     5 ar  
     7     4    10 1   
     8     5     6 ar  
     9     5     8 1   
    10     6     7 1   
    11     7    36 1   
    12     7    37 1   
    13     8     9 2   
    14     9    10 1   
    15     9    38 1   
    16    10    33 1   
    17    11    29 1   
    18    11    39 1   
    19    11    40 1   
    20    11    41 1   
    21    12    29 1   
    22    12    42 1   
    23    12    43 1   
    24    12    44 1   
    25    13    26 2   
    26    14    30 1   
    27    14    54 1   
    28    15    31 1   
    29    15    55 1   
    30    16    18 ar  
    31    16    27 ar  
    32    16    74 1   
    33    17    19 ar  
    34    17    27 ar  
    35    17    56 1   
    36    18    28 ar  
    37    18    57 1   
    38    19    28 ar  
    39    19    58 1   
    40    20    21 1   
    41    20    22 1   
    42    20    59 1   
    43    20    60 1   
    44    21    23 1   
    45    21    61 1   
    46    21    62 1   
    47    22    63 1   
    48    22    64 1   
    49    22    73 1   
    50    23    26 1   
    51    23    65 1   
    52    24    26 1   
    53    24    27 1   
    54    24    66 1   
    55    25    32 1   
    56    25    33 1   
    57    28    34 1   
    58    29    67 1   
    59    29    73 1   
    60    30    31 1   
    61    30    32 1   
    62    30    68 1   
    63    31    33 1   
    64    31    69 1   
    65    32    70 1   
    66    32    72 1   
    67    33    71 1   
    68    34    75 1   
    69    34    76 1   
    70    34    77 1   
    71    45    75 1   
    72    46    75 1   
    73    47    75 1   
    74    48    76 1   
    75    49    76 1   
    76    50    76 1   
    77    51    77 1   
    78    52    77 1   
    79    53    77 1   
    80    72    73 1   
    81    72    78 1   
    82    72    79 1   
@<TRIPOS>SUBSTRUCTURE
     1 AW1         1 TEMP              0 ****  ****    0 ROOT
