@<TRIPOS>MOLECULE
AW3
   71    74     1     0     0
SMALL
No Charge or Current Charge


@<TRIPOS>ATOM
      1 N1          -6.2250     2.2410     2.9170 nb         1 AW3      -0.304000
      2 C2          -5.4970     1.1760     3.3340 ca         1 AW3       0.185900
      3 N3          -5.1800     0.0760     2.6090 nb         1 AW3      -0.234000
      4 C4          -5.6400     0.0510     1.3420 ca         1 AW3       0.152500
      5 C5          -6.3860     1.0890     0.8410 ca         1 AW3      -0.238800
      6 C6          -6.6710     2.1920     1.6540 ca         1 AW3       0.442900
      7 NAD         -7.4010     3.2570     1.2420 nv         1 AW3      -1.068900
      8 OAE          5.7370    -0.4260    -2.0440 o          1 AW3      -0.627100
      9 OAF         -4.2270    -4.7490    -2.1060 oh         1 AW3      -0.709000
     10 OAG         -5.2500    -4.6590     0.3640 oh         1 AW3      -0.700000
     11 CAJ          8.4520     0.3790    -0.8680 ca         1 AW3      -0.152500
     12 CAK          8.2280     0.3000     1.5380 ca         1 AW3      -0.152500
     13 CAL          9.7910     0.7810    -0.7260 ca         1 AW3      -0.081000
     14 CAM          9.5670     0.7010     1.6830 ca         1 AW3      -0.081000
     15 CAN         -6.1790    -0.4850    -0.8330 cc         1 AW3      -0.126100
     16 CAO          1.8230    -1.6500    -0.5970 c3         1 AW3      -0.101400
     17 CAP          0.6540    -1.9930    -1.5390 c3         1 AW3       0.163800
     18 CAQ          3.0890    -1.2260    -1.3620 c3         1 AW3       0.122000
     19 NAU         -0.5310    -2.3780    -0.7540 n7         1 AW3      -0.850400
     20 NAV          4.1880    -0.9020    -0.4510 ns         1 AW3      -0.530900
     21 NAW          6.2940    -0.2740     0.2040 ns         1 AW3      -0.162000
     22 OAX         -3.4040    -1.9770     0.1320 os         1 AW3      -0.422000
     23 CAY          5.4430    -0.5220    -0.8610 c          1 AW3       0.662100
     24 CBA          7.6550     0.1340     0.2670 ca         1 AW3      -0.005000
     25 CBB         -6.7210     0.7490    -0.5210 cd         1 AW3      -0.083500
     26 CBC         10.3780     0.9500     0.5490 ca         1 AW3      -0.093300
     27 CBF         -4.2610    -3.4460    -1.4910 c5         1 AW3       0.088300
     28 CBG         -5.3070    -3.4100    -0.3410 c5         1 AW3       0.101300
     29 CBH         -2.9760    -3.0890    -0.6850 c5         1 AW3       0.164300
     30 CBI         -4.7910    -2.1830     0.5040 c5         1 AW3       0.312300
     31 NBJ         -5.5070    -0.9070     0.3420 na         1 AW3      -0.206400
     32 CBK         11.8620     1.3950     0.6570 c3         1 AW3       0.005300
     33 H2          -5.1300     1.2060     4.3590 h5         1 AW3       0.046100
     34 HAA         11.7650     2.2860     2.6700 hc         1 AW3       0.034700
     35 HAAA        12.2770     0.5790     2.6610 hc         1 AW3       0.034700
     36 HAAB        13.4020     1.8490     2.1610 hc         1 AW3       0.034700
     37 HAB         11.3790     3.5220     0.4230 hc         1 AW3       0.034700
     38 HABA        13.0690     3.1300     0.0530 hc         1 AW3       0.034700
     39 HABB        11.7960     2.7230    -1.1040 hc         1 AW3       0.034700
     40 HAC         13.8240     0.6170     0.0400 hc         1 AW3       0.034700
     41 HACA        12.6290    -0.6450     0.4010 hc         1 AW3       0.034700
     42 HACB        12.5340     0.2670    -1.1170 hc         1 AW3       0.034700
     43 HNAD        -7.7720     3.8830     1.9520 hn         1 AW3       0.501500
     44 HNAA        -7.9450     3.1600     0.3890 hn         1 AW3       0.501500
     45 HOAF        -3.8860    -4.6400    -3.0280 ho         1 AW3       0.518000
     46 HOAG        -4.9230    -5.2850    -0.3330 ho         1 AW3       0.523000
     47 HAK          7.6320     0.1160     2.4290 ha         1 AW3       0.125500
     48 HAL         10.3730     0.9600    -1.6260 ha         1 AW3       0.111500
     49 HAM          9.9520     0.8110     2.6920 ha         1 AW3       0.111500
     50 HAN         -6.2160    -1.0570    -1.7540 h4         1 AW3       0.237000
     51 HAO          1.5180    -0.8370     0.0730 hc         1 AW3       0.052700
     52 HAOA         2.0550    -2.5210     0.0280 hc         1 AW3       0.052700
     53 HAP          0.4290    -1.1190    -2.1650 h1         1 AW3       0.033700
     54 HAPA         0.9570    -2.8140    -2.2050 h1         1 AW3       0.033700
     55 HAQ          3.4080    -2.0400    -2.0270 h1         1 AW3       0.051700
     56 HAQA         2.8690    -0.3440    -1.9790 h1         1 AW3       0.051700
     57 HNAU        -0.2870    -3.1970    -0.1830 hn         1 AW3       0.411000
     58 HNAV         4.0230    -0.9580     0.5460 hn         1 AW3       0.311500
     59 HNAW         5.8700    -0.4070     1.1120 hn         1 AW3       0.141000
     60 HBF         -4.4780    -2.6670    -2.2370 h1         1 AW3       0.057700
     61 HBG         -6.3220    -3.2380    -0.7250 h1         1 AW3       0.077700
     62 HBH         -2.6910    -3.9200    -0.0240 h1         1 AW3       0.078700
     63 HBI         -4.8600    -2.4300     1.5720 h2         1 AW3       0.130700
     64 BrH         -7.7280     1.7630    -1.7560 br         1 AW3      -0.057700
     65 CAR         -1.7410    -2.7020    -1.5520 c3         1 AW3       0.159800
     66 HAJ          8.0560     0.2660    -1.8720 ha         1 AW3       0.125500
     67 CAA         12.3520     1.5340     2.1270 c3         1 AW3      -0.082433
     68 CAB         12.0360     2.7740    -0.0360 c3         1 AW3      -0.082433
     69 CAC         12.7640     0.3460    -0.0480 c3         1 AW3      -0.082433
     70 HAR         -2.0200    -1.8450    -2.1800 h1         1 AW3       0.039700
     71 HARA        -1.5250    -3.5410    -2.2270 h1         1 AW3       0.039700
@<TRIPOS>BOND
     1     1     2 ar  
     2     1     6 ar  
     3     2     3 ar  
     4     2    33 1   
     5     3     4 ar  
     6     4     5 ar  
     7     4    31 1   
     8     5     6 ar  
     9     5    25 1   
    10     6     7 1   
    11     7    43 1   
    12     7    44 1   
    13     8    23 2   
    14     9    27 1   
    15     9    45 1   
    16    10    28 1   
    17    10    46 1   
    18    11    13 ar  
    19    11    24 ar  
    20    11    66 1   
    21    12    14 ar  
    22    12    24 ar  
    23    12    47 1   
    24    13    26 ar  
    25    13    48 1   
    26    14    26 ar  
    27    14    49 1   
    28    15    25 2   
    29    15    31 1   
    30    15    50 1   
    31    16    17 1   
    32    16    18 1   
    33    16    51 1   
    34    16    52 1   
    35    17    19 1   
    36    17    53 1   
    37    17    54 1   
    38    18    20 1   
    39    18    55 1   
    40    18    56 1   
    41    19    57 1   
    42    19    65 1   
    43    20    23 1   
    44    20    58 1   
    45    21    23 1   
    46    21    24 1   
    47    21    59 1   
    48    22    29 1   
    49    22    30 1   
    50    25    64 1   
    51    26    32 1   
    52    27    28 1   
    53    27    29 1   
    54    27    60 1   
    55    28    30 1   
    56    28    61 1   
    57    29    62 1   
    58    29    65 1   
    59    30    31 1   
    60    30    63 1   
    61    32    67 1   
    62    32    68 1   
    63    32    69 1   
    64    34    67 1   
    65    35    67 1   
    66    36    67 1   
    67    37    68 1   
    68    38    68 1   
    69    39    68 1   
    70    40    69 1   
    71    41    69 1   
    72    42    69 1   
    73    65    70 1   
    74    65    71 1   
@<TRIPOS>SUBSTRUCTURE
     1 AW3         1 TEMP              0 ****  ****    0 ROOT
