@<TRIPOS>MOLECULE
AW3
   71    74     1     0     0
SMALL
abcg2


@<TRIPOS>ATOM
      1 N1          -8.3170     1.2680     1.3700 nb         1 AW3      -0.304000
      2 C2          -8.0950     0.0610     1.8810 ca         1 AW3       0.185900
      3 N3          -7.0410    -0.7110     1.7110 nb         1 AW3      -0.234000
      4 C4          -6.1160    -0.1520     0.9290 ca         1 AW3       0.152500
      5 C5          -6.2020     1.1050     0.3210 ca         1 AW3      -0.238800
      6 C6          -7.3910     1.8210     0.5820 ca         1 AW3       0.442900
      7 NAD         -7.6430     3.0410     0.0940 nv         1 AW3      -1.068900
      8 OAE          5.4330     0.1880    -1.4810 o          1 AW3      -0.627100
      9 OAF         -4.0680    -4.5790    -1.5380 oh         1 AW3      -0.709000
     10 OAG         -5.2680    -4.3050     0.9140 oh         1 AW3      -0.700000
     11 CAJ          8.1210     0.9350    -0.6330 ca         1 AW3      -0.152500
     12 CAK          8.5780    -0.3020     1.3610 ca         1 AW3      -0.152500
     13 CAL          9.4630     1.2730    -0.6980 ca         1 AW3      -0.081000
     14 CAM          9.9160     0.0530     1.2790 ca         1 AW3      -0.081000
     15 CAN         -4.2390     0.1410    -0.2210 cc         1 AW3      -0.126100
     16 CAO          1.8760    -1.6360    -0.0160 c3         1 AW3      -0.101400
     17 CAP          0.6470    -1.7950    -0.8970 c3         1 AW3       0.163800
     18 CAQ          2.9980    -0.9210    -0.7510 c3         1 AW3       0.122000
     19 NAU         -0.4350    -2.4270    -0.1690 n7         1 AW3      -0.850400
     20 NAV          4.1610    -0.8010     0.1000 ns         1 AW3      -0.530900
     21 NAW          6.3290    -0.2650     0.5800 ns         1 AW3      -0.162000
     22 OAX         -3.1400    -2.1800     0.8900 os         1 AW3      -0.422000
     23 CAY          5.3160    -0.2630    -0.3490 c          1 AW3       0.662100
     24 CBA          7.6560     0.1260     0.4060 ca         1 AW3      -0.005000
     25 CBB         -4.9870     1.2640    -0.4080 cd         1 AW3      -0.083500
     26 CBC         10.4000     0.8470     0.2430 ca         1 AW3      -0.093300
     27 CBF         -4.0710    -3.3130    -0.9390 c5         1 AW3       0.088300
     28 CBG         -5.1480    -3.1440     0.1390 c5         1 AW3       0.101300
     29 CBH         -2.7880    -3.1070    -0.1380 c5         1 AW3       0.164300
     30 CBI         -4.5230    -2.0590     1.0150 c5         1 AW3       0.312300
     31 NBJ         -4.9300    -0.7210     0.5950 na         1 AW3      -0.206400
     32 CBK         11.8640     1.2490     0.1050 c3         1 AW3       0.005300
     33 H2          -8.8850    -0.3330     2.5110 h5         1 AW3       0.046100
     34 HAA         12.4220     1.0040     2.2060 hc         1 AW3       0.034700
     35 HAAA        12.7130    -0.4310     1.2170 hc         1 AW3       0.034700
     36 HAAB        13.7700     0.9670     1.0760 hc         1 AW3       0.034700
     37 HAB         11.6350     3.1650     1.1210 hc         1 AW3       0.034700
     38 HABA        13.0140     3.0930     0.0240 hc         1 AW3       0.034700
     39 HABB        11.3850     3.2560    -0.6230 hc         1 AW3       0.034700
     40 HAC         13.4590     0.9970    -1.3470 hc         1 AW3       0.034700
     41 HACA        12.3050    -0.3380    -1.3240 hc         1 AW3       0.034700
     42 HACB        11.8730     1.1940    -2.0850 hc         1 AW3       0.034700
     43 HNAD        -8.5470     3.4510     0.2580 hn         1 AW3       0.501500
     44 HNAA        -7.0570     3.4750    -0.5950 hn         1 AW3       0.501500
     45 HOAF        -4.7010    -4.5830    -2.2630 ho         1 AW3       0.518000
     46 HOAG        -5.1700    -5.0630     0.3230 ho         1 AW3       0.523000
     47 HAK          8.2480    -0.9260     2.1840 ha         1 AW3       0.125500
     48 HAL          9.7780     1.8990    -1.5260 ha         1 AW3       0.111500
     49 HAM         10.5780    -0.3160     2.0510 ha         1 AW3       0.111500
     50 HAN         -3.2580    -0.0880    -0.5980 h4         1 AW3       0.237000
     51 HAO          1.6020    -1.0760     0.8820 hc         1 AW3       0.052700
     52 HAOA         2.2230    -2.6220     0.3100 hc         1 AW3       0.052700
     53 HAP          0.3050    -0.8070    -1.2220 h1         1 AW3       0.033700
     54 HAPA         0.9230    -2.3410    -1.8140 h1         1 AW3       0.033700
     55 HAQ          3.2510    -1.4730    -1.6610 h1         1 AW3       0.051700
     56 HAQA         2.6550     0.0680    -1.0660 h1         1 AW3       0.051700
     57 HNAU        -0.1290    -3.3410     0.1460 hn         1 AW3       0.411000
     58 HNAV         4.1110    -1.1940     1.0270 hn         1 AW3       0.311500
     59 HNAW         6.1440    -0.7390     1.4510 hn         1 AW3       0.141000
     60 HBF         -4.1790    -2.5170    -1.6880 h1         1 AW3       0.057700
     61 HBG         -6.1140    -2.8290    -0.2740 h1         1 AW3       0.077700
     62 HBH         -2.4960    -4.0590     0.3260 h1         1 AW3       0.078700
     63 HBI         -4.8280    -2.1700     2.0590 h2         1 AW3       0.130700
     64 BRH         -4.4550     2.7290    -1.4320 br         1 AW3      -0.057700
     65 CAR         -1.6340    -2.5820    -0.9630 c3         1 AW3       0.159800
     66 HAJ          7.4490     1.3060    -1.3900 ha         1 AW3       0.125500
     67 CAA         12.7320     0.6600     1.2180 c3         1 AW3      -0.082433
     68 CAB         11.9770     2.7790     0.1590 c3         1 AW3      -0.082433
     69 CAC         12.4020     0.7470    -1.2420 c3         1 AW3      -0.082433
     70 HAR         -1.9020    -1.6080    -1.3840 h1         1 AW3       0.039700
     71 HARA        -1.5050    -3.2590    -1.8210 h1         1 AW3       0.039700
@<TRIPOS>BOND
     1     1     2 ar  
     2     1     6 ar  
     3     2     3 ar  
     4     2    33 1   
     5     3     4 ar  
     6     4     5 ar  
     7     4    31 1   
     8     5     6 ar  
     9     5    25 1   
    10     6     7 1   
    11     7    43 1   
    12     7    44 1   
    13     8    23 2   
    14     9    27 1   
    15     9    45 1   
    16    10    28 1   
    17    10    46 1   
    18    11    13 ar  
    19    11    24 ar  
    20    11    66 1   
    21    12    14 ar  
    22    12    24 ar  
    23    12    47 1   
    24    13    26 ar  
    25    13    48 1   
    26    14    26 ar  
    27    14    49 1   
    28    15    25 2   
    29    15    31 1   
    30    15    50 1   
    31    16    17 1   
    32    16    18 1   
    33    16    51 1   
    34    16    52 1   
    35    17    19 1   
    36    17    53 1   
    37    17    54 1   
    38    18    20 1   
    39    18    55 1   
    40    18    56 1   
    41    19    57 1   
    42    19    65 1   
    43    20    23 1   
    44    20    58 1   
    45    21    23 1   
    46    21    24 1   
    47    21    59 1   
    48    22    29 1   
    49    22    30 1   
    50    25    64 1   
    51    26    32 1   
    52    27    28 1   
    53    27    29 1   
    54    27    60 1   
    55    28    30 1   
    56    28    61 1   
    57    29    62 1   
    58    29    65 1   
    59    30    31 1   
    60    30    63 1   
    61    32    67 1   
    62    32    68 1   
    63    32    69 1   
    64    34    67 1   
    65    35    67 1   
    66    36    67 1   
    67    37    68 1   
    68    38    68 1   
    69    39    68 1   
    70    40    69 1   
    71    41    69 1   
    72    42    69 1   
    73    65    70 1   
    74    65    71 1   
@<TRIPOS>SUBSTRUCTURE
     1 AW3         1 TEMP              0 ****  ****    0 ROOT
