@<TRIPOS>MOLECULE
AW4
   66    67     1     0     0
SMALL
No Charge or Current Charge


@<TRIPOS>ATOM
      1 C12          2.5560     2.9340     0.1280 c          1 AW4       0.564000
      2 C14          4.2270     4.6300     0.2280 c5         1 AW4       0.099000
      3 C15          4.1860     4.0730    -1.2210 c5         1 AW4      -0.089400
      4 O01         -2.0450    -0.2000     1.5130 o          1 AW4      -0.547000
      5 N03         -0.7280    -0.4600    -0.3510 ns         1 AW4      -0.485900
      6 C04          0.5520    -0.8110     0.2980 c3         1 AW4       0.043700
      7 N06          2.9430    -0.2250    -0.0870 ns         1 AW4      -0.471900
      8 C07          4.1820     0.0950    -0.7990 c3         1 AW4       0.116700
      9 C08          5.2860    -0.9640    -0.4870 c3         1 AW4      -0.095700
     10 O09          6.3790    -0.8550    -1.4590 oh         1 AW4      -0.641000
     11 C10          4.6110     1.5790    -0.5980 c3         1 AW4      -0.081400
     12 C11          3.5630     2.6650    -1.0030 c5         1 AW4      -0.151700
     13 N13          2.9940     4.0620     0.7670 ns         1 AW4      -0.511900
     14 O16          1.4600     2.4400     0.3340 o          1 AW4      -0.563000
     15 O17          1.5740    -0.4650    -1.8970 o          1 AW4      -0.644100
     16 C18          0.5200    -2.3080     0.7290 c3         1 AW4      -0.086400
     17 C20          1.7370    -2.0570     2.9900 c3         1 AW4      -0.081100
     18 C21          1.6000    -4.3260     1.8530 c3         1 AW4      -0.081100
     19 O22         -2.8560     0.0940    -0.6190 os         1 AW4      -0.472100
     20 C23         -4.1720     0.4100    -0.1330 c3         1 AW4       0.188600
     21 C24         -5.0690     0.6890    -1.3520 c3         1 AW4      -0.043100
     22 C25         -6.4950     1.0340    -0.9450 ca         1 AW4      -0.068300
     23 C26         -7.4670     0.0210    -0.8280 ca         1 AW4      -0.098000
     24 C27         -8.7800     0.3420    -0.4460 ca         1 AW4       0.121000
     25 Cl1         -9.9870    -0.9300    -0.3020 cl         1 AW4      -0.213000
     26 C29         -9.1330     1.6740    -0.1770 ca         1 AW4      -0.107000
     27 C30         -8.1670     2.6900    -0.2900 ca         1 AW4      -0.102000
     28 C31         -6.8520     2.3700    -0.6730 ca         1 AW4      -0.103000
     29 H1           5.1070     4.2650     0.7760 h1         1 AW4       0.041200
     30 H2           4.2360     5.7280     0.2480 h1         1 AW4       0.041200
     31 H3           3.5330     4.6910    -1.8500 hc         1 AW4       0.051700
     32 H4           5.1720     4.0530    -1.7000 hc         1 AW4       0.051700
     33 H5           2.6340    -2.6150     1.1110 hc         1 AW4       0.083700
     34 H6          -0.7560    -0.3880    -1.3610 hn         1 AW4       0.340500
     35 H7           0.6700    -0.1680     1.1790 h1         1 AW4       0.099700
     36 H8           2.9900    -0.2810     0.9260 hn         1 AW4       0.357500
     37 H9           3.9740    -0.0100    -1.8720 h1         1 AW4       0.051700
     38 H10          4.8340    -1.9560    -0.5810 h2         1 AW4       0.106700
     39 H12          7.0740    -0.2900    -1.0470 ho         1 AW4       0.445000
     40 H13          4.9060     1.7390     0.4450 hc         1 AW4       0.071700
     41 H14          5.5200     1.7340    -1.1910 hc         1 AW4       0.071700
     42 H15          3.0300     2.2920    -1.8850 hc         1 AW4       0.083700
     43 H16          2.4200     4.4660     1.4980 hn         1 AW4       0.321500
     44 H17          0.4880    -2.9240    -0.1790 hc         1 AW4       0.042200
     45 H18         -0.4210    -2.5030     1.2590 hc         1 AW4       0.042200
     46 H19          2.5510    -2.4470     3.6120 hc         1 AW4       0.030367
     47 H20          1.9120    -0.9840     2.8550 hc         1 AW4       0.030367
     48 H21          0.7960    -2.1850     3.5400 hc         1 AW4       0.030367
     49 H22          1.6190    -4.8600     0.8950 hc         1 AW4       0.030367
     50 H23          2.4490    -4.6800     2.4510 hc         1 AW4       0.030367
     51 H24          0.6750    -4.5950     2.3780 hc         1 AW4       0.030367
     52 H25         -4.5870    -0.4280     0.4430 h1         1 AW4       0.050200
     53 H26         -4.1470     1.2980     0.5140 h1         1 AW4       0.050200
     54 H27         -4.6330     1.5090    -1.9350 hc         1 AW4       0.062700
     55 H28         -5.0640    -0.1920    -2.0070 hc         1 AW4       0.062700
     56 H29         -7.2070    -1.0150    -1.0310 ha         1 AW4       0.131000
     57 H30        -10.1500     1.9190     0.1190 ha         1 AW4       0.125000
     58 H31         -8.4370     3.7230    -0.0810 ha         1 AW4       0.115000
     59 H32         -6.1110     3.1620    -0.7560 ha         1 AW4       0.120000
     60 S1           5.9020    -0.9510     1.2790 s6         1 AW4       1.282600
     61 O1           6.4830    -2.2900     1.4620 o          1 AW4      -0.683200
     62 O2           6.8910     0.1370     1.2930 o          1 AW4      -0.683200
     63 O3           4.7030    -0.6980     2.0920 o          1 AW4      -0.683200
     64 C05          1.7240    -0.4940    -0.6790 c          1 AW4       0.590100
     65 C02         -1.8950    -0.1900     0.3010 c          1 AW4       0.637100
     66 C19          1.6860    -2.7990     1.6320 c3         1 AW4      -0.058700
@<TRIPOS>BOND
     1     1    12 1   
     2     1    13 1   
     3     1    14 2   
     4     2     3 1   
     5     2    13 1   
     6     2    29 1   
     7     2    30 1   
     8     3    12 1   
     9     3    31 1   
    10     3    32 1   
    11     4    65 2   
    12     5     6 1   
    13     5    34 1   
    14     5    65 1   
    15     6    16 1   
    16     6    35 1   
    17     6    64 1   
    18     7     8 1   
    19     7    36 1   
    20     7    64 1   
    21     8     9 1   
    22     8    11 1   
    23     8    37 1   
    24     9    10 1   
    25     9    38 1   
    26     9    60 1   
    27    10    39 1   
    28    11    12 1   
    29    11    40 1   
    30    11    41 1   
    31    12    42 1   
    32    13    43 1   
    33    15    64 2   
    34    16    44 1   
    35    16    45 1   
    36    16    66 1   
    37    17    46 1   
    38    17    47 1   
    39    17    48 1   
    40    17    66 1   
    41    18    49 1   
    42    18    50 1   
    43    18    51 1   
    44    18    66 1   
    45    19    20 1   
    46    19    65 1   
    47    20    21 1   
    48    20    52 1   
    49    20    53 1   
    50    21    22 1   
    51    21    54 1   
    52    21    55 1   
    53    22    23 ar  
    54    22    28 ar  
    55    23    24 ar  
    56    23    56 1   
    57    24    25 1   
    58    24    26 ar  
    59    26    27 ar  
    60    26    57 1   
    61    27    28 ar  
    62    27    58 1   
    63    28    59 1   
    64    33    66 1   
    65    60    61 1   
    66    60    62 1   
    67    60    63 1   
@<TRIPOS>SUBSTRUCTURE
     1 AW4         1 TEMP              0 ****  ****    0 ROOT
