@<TRIPOS>MOLECULE
AW4
   66    67     1     0     0
SMALL
bcc


@<TRIPOS>ATOM
      1 C12          3.0680     2.9610     1.0520 c          1 AW4       0.706500
      2 C14          4.5550     4.7210     0.5920 c5         1 AW4       0.099000
      3 C15          4.1180     4.1300    -0.7500 c5         1 AW4      -0.089400
      4 O01         -1.9830     0.2060     1.2170 o          1 AW4      -0.596000
      5 N03         -0.7360    -0.6320    -0.4910 ns         1 AW4      -0.552900
      6 C04          0.4670    -0.8630     0.2760 c3         1 AW4       0.043700
      7 N06          2.6810    -0.0070    -0.1880 ns         1 AW4      -0.538900
      8 C07          3.8650     0.2960    -0.9610 c3         1 AW4       0.116700
      9 C08          4.8070    -0.9160    -1.0450 c3         1 AW4      -0.008100
     10 O09          5.7370    -0.7850    -2.0770 oh         1 AW4      -0.578800
     11 C10          4.5120     1.5910    -0.4690 c3         1 AW4      -0.081400
     12 C11          3.5150     2.7670    -0.3940 c5         1 AW4      -0.151700
     13 N13          3.6460     4.0750     1.5160 ns         1 AW4      -0.578900
     14 O16          2.3520     2.2080     1.7040 o          1 AW4      -0.638500
     15 O17          1.6150    -1.1780    -1.8020 o          1 AW4      -0.644100
     16 C18          0.4720    -2.2660     0.8970 c3         1 AW4      -0.086400
     17 C20          1.7650    -1.6780     2.9990 c3         1 AW4      -0.081100
     18 C21          1.5650    -4.0560     2.2410 c3         1 AW4      -0.081100
     19 O22         -2.8600    -0.1380    -0.8300 os         1 AW4      -0.448900
     20 C23         -4.1290     0.3360    -0.3830 c3         1 AW4       0.165400
     21 C24         -5.0770     0.2850    -1.5700 c3         1 AW4      -0.043100
     22 C25         -6.4390     0.7750    -1.1620 ca         1 AW4      -0.068300
     23 C26         -7.3950    -0.1210    -0.6920 ca         1 AW4      -0.116000
     24 C27         -8.6340     0.3470    -0.2840 ca         1 AW4       0.029400
     25 CL1         -9.8170    -0.7860     0.2890 cl         1 AW4      -0.121400
     26 C29         -8.9510     1.6950    -0.3280 ca         1 AW4      -0.125000
     27 C30         -7.9940     2.5860    -0.7950 ca         1 AW4      -0.120000
     28 C31         -6.7500     2.1320    -1.2080 ca         1 AW4      -0.121000
     29 H1           5.5940     4.4770     0.8300 h1         1 AW4       0.041200
     30 H2           4.4470     5.8040     0.6270 h1         1 AW4       0.041200
     31 H3           3.3490     4.7650    -1.1920 hc         1 AW4       0.051700
     32 H4           4.9390     4.0610    -1.4610 hc         1 AW4       0.051700
     33 H5           2.5920    -2.4960     1.2160 hc         1 AW4       0.083700
     34 H6          -0.7650    -1.0010    -1.4300 hn         1 AW4       0.340500
     35 H7           0.5120    -0.1090     1.0620 h1         1 AW4       0.099700
     36 H8           2.6000     0.4090     0.7300 hn         1 AW4       0.357500
     37 H9           3.5400     0.4710    -1.9920 h1         1 AW4       0.051700
     38 H10          4.1980    -1.7970    -1.2620 h2         1 AW4       0.106700
     39 H12          6.4630    -0.2310    -1.7590 ho         1 AW4       0.406000
     40 H13          4.9910     1.4400     0.4990 hc         1 AW4       0.071700
     41 H14          5.3100     1.8480    -1.1670 hc         1 AW4       0.071700
     42 H15          2.6480     2.5500    -1.0220 hc         1 AW4       0.083700
     43 H16          3.5960     4.3290     2.4910 hn         1 AW4       0.321500
     44 H17          0.4030    -2.9980     0.0860 hc         1 AW4       0.042200
     45 H18         -0.4470    -2.3640     1.4850 hc         1 AW4       0.042200
     46 H19          2.6020    -1.9660     3.6360 hc         1 AW4       0.030367
     47 H20          1.9270    -0.6350     2.7250 hc         1 AW4       0.030367
     48 H21          0.8560    -1.7260     3.6030 hc         1 AW4       0.030367
     49 H22          1.5270    -4.7350     1.3880 hc         1 AW4       0.030367
     50 H23          2.4230    -4.3390     2.8530 hc         1 AW4       0.030367
     51 H24          0.6640    -4.2200     2.8380 hc         1 AW4       0.030367
     52 H25         -4.5050    -0.2900     0.4310 h1         1 AW4       0.050200
     53 H26         -4.0450     1.3590    -0.0090 h1         1 AW4       0.050200
     54 H27         -4.6870     0.9070    -2.3780 hc         1 AW4       0.062700
     55 H28         -5.1430    -0.7380    -1.9450 hc         1 AW4       0.062700
     56 H29         -7.1720    -1.1800    -0.6510 ha         1 AW4       0.149000
     57 H30         -9.9220     2.0460    -0.0060 ha         1 AW4       0.143000
     58 H31         -8.2270     3.6410    -0.8370 ha         1 AW4       0.133000
     59 H32         -6.0130     2.8370    -1.5740 ha         1 AW4       0.138000
     60 S1           5.7160    -1.2890     0.5050 s6         1 AW4       1.171800
     61 O1           6.0490    -2.7220     0.4270 o          1 AW4      -0.683200
     62 O2           6.9130    -0.4170     0.4100 o          1 AW4      -0.683200
     63 O3           4.8340    -0.9450     1.6330 o          1 AW4      -0.683200
     64 C05          1.6450    -0.6910    -0.6770 c          1 AW4       0.657100
     65 C02         -1.8660    -0.1630     0.0660 c          1 AW4       0.753100
     66 C19          1.6670    -2.6020     1.7900 c3         1 AW4      -0.058700
@<TRIPOS>BOND
     1     1    12 1   
     2     1    13 1   
     3     1    14 2   
     4     2     3 1   
     5     2    13 1   
     6     2    29 1   
     7     2    30 1   
     8     3    12 1   
     9     3    31 1   
    10     3    32 1   
    11     4    65 2   
    12     5     6 1   
    13     5    34 1   
    14     5    65 1   
    15     6    16 1   
    16     6    35 1   
    17     6    64 1   
    18     7     8 1   
    19     7    36 1   
    20     7    64 1   
    21     8     9 1   
    22     8    11 1   
    23     8    37 1   
    24     9    10 1   
    25     9    38 1   
    26     9    60 1   
    27    10    39 1   
    28    11    12 1   
    29    11    40 1   
    30    11    41 1   
    31    12    42 1   
    32    13    43 1   
    33    15    64 2   
    34    16    44 1   
    35    16    45 1   
    36    16    66 1   
    37    17    46 1   
    38    17    47 1   
    39    17    48 1   
    40    17    66 1   
    41    18    49 1   
    42    18    50 1   
    43    18    51 1   
    44    18    66 1   
    45    19    20 1   
    46    19    65 1   
    47    20    21 1   
    48    20    52 1   
    49    20    53 1   
    50    21    22 1   
    51    21    54 1   
    52    21    55 1   
    53    22    23 ar  
    54    22    28 ar  
    55    23    24 ar  
    56    23    56 1   
    57    24    25 1   
    58    24    26 ar  
    59    26    27 ar  
    60    26    57 1   
    61    27    28 ar  
    62    27    58 1   
    63    28    59 1   
    64    33    66 1   
    65    60    61 1   
    66    60    62 1   
    67    60    63 1   
@<TRIPOS>SUBSTRUCTURE
     1 AW4         1 TEMP              0 ****  ****    0 ROOT
