@<TRIPOS>MOLECULE
AW5
   18    18     1     0     0
SMALL
abcg2


@<TRIPOS>ATOM
      1 O1          -2.7460     1.1100     0.0830 o          1 AW5      -0.720500
      2 O2          -2.7400    -1.1150    -0.0070 o          1 AW5      -0.720500
      3 C6           0.0470     1.2040    -0.0050 ca         1 AW5      -0.115000
      4 C3           1.4280    -1.1960    -0.1300 ca         1 AW5       0.093100
      5 C1           1.4390     1.2170    -0.0480 ca         1 AW5      -0.086300
      6 C2           2.1250     0.0100    -0.1120 ca         1 AW5      -0.169000
      7 C5          -0.6590     0.0060    -0.0220 ca         1 AW5      -0.101600
      8 C4           0.0390    -1.1970    -0.0850 ca         1 AW5      -0.173000
      9 C7          -2.1850     0.0000     0.0220 c          1 AW5       0.712600
     10 H2          -0.4990     2.1380     0.0390 ha         1 AW5       0.128000
     11 H3           3.2090    -0.0010    -0.1500 ha         1 AW5       0.096000
     12 H4          -0.5120    -2.1310    -0.1020 ha         1 AW5       0.128000
     13 H5           1.5660    -3.0990    -0.2020 ho         1 AW5       0.452000
     14 H6           2.3400     2.8410     1.0360 hc         1 AW5       0.025367
     15 H7           3.1830     2.4220    -0.4480 hc         1 AW5       0.025367
     16 H8           1.6600     3.3100    -0.5130 hc         1 AW5       0.025367
     17 O            2.1530    -2.3350    -0.1970 oh         1 AW5      -0.564100
     18 C            2.1950     2.5140     0.0040 c3         1 AW5      -0.032800
@<TRIPOS>BOND
     1     1     9 1   
     2     2     9 1   
     3     3     5 ar  
     4     3     7 ar  
     5     3    10 1   
     6     4     6 ar  
     7     4     8 ar  
     8     4    17 1   
     9     5     6 ar  
    10     5    18 1   
    11     6    11 1   
    12     7     8 ar  
    13     7     9 1   
    14     8    12 1   
    15    13    17 1   
    16    14    18 1   
    17    15    18 1   
    18    16    18 1   
@<TRIPOS>SUBSTRUCTURE
     1 AW5         1 TEMP              0 ****  ****    0 ROOT
