@<TRIPOS>MOLECULE
AW5
   18    18     1     0     0
SMALL
No Charge or Current Charge


@<TRIPOS>ATOM
      1 O1          -2.7910     1.0640     0.0760 o          1 AW5      -0.720500
      2 O2          -2.7900    -1.0810    -0.0090 o          1 AW5      -0.720500
      3 C6           0.0450     1.2120     0.0050 ca         1 AW5      -0.115000
      4 C3           1.4550    -1.2070    -0.1300 ca         1 AW5       0.093100
      5 C1           1.4530     1.2240    -0.0340 ca         1 AW5      -0.086300
      6 C2           2.1540     0.0080    -0.1000 ca         1 AW5      -0.169000
      7 C5          -0.6780    -0.0050    -0.0240 ca         1 AW5      -0.101600
      8 C4           0.0520    -1.2180    -0.0930 ca         1 AW5      -0.173000
      9 C7          -2.2030    -0.0070     0.0180 c          1 AW5       0.712600
     10 H2          -0.4890     2.1580     0.0600 ha         1 AW5       0.128000
     11 H3           3.2410     0.0050    -0.1270 ha         1 AW5       0.096000
     12 H4          -0.4780    -2.1670    -0.1170 ha         1 AW5       0.128000
     13 H5           1.5040    -3.1200    -0.2070 ho         1 AW5       0.452000
     14 H6           2.3730     2.8710     1.0350 hc         1 AW5       0.025367
     15 H7           3.1880     2.4590    -0.4830 hc         1 AW5       0.025367
     16 H8           1.6530     3.3360    -0.5150 hc         1 AW5       0.025367
     17 O            2.1470    -2.3790    -0.1940 oh         1 AW5      -0.564100
     18 C            2.2080     2.5440     0.0020 c3         1 AW5      -0.032800
@<TRIPOS>BOND
     1     1     9 1   
     2     2     9 1   
     3     3     5 ar  
     4     3     7 ar  
     5     3    10 1   
     6     4     6 ar  
     7     4     8 ar  
     8     4    17 1   
     9     5     6 ar  
    10     5    18 1   
    11     6    11 1   
    12     7     8 ar  
    13     7     9 1   
    14     8    12 1   
    15    13    17 1   
    16    14    18 1   
    17    15    18 1   
    18    16    18 1   
@<TRIPOS>SUBSTRUCTURE
     1 AW5         1 TEMP              0 ****  ****    0 ROOT
