@<TRIPOS>MOLECULE
AW6
   41    44     1     0     0
SMALL
abcg2


@<TRIPOS>ATOM
      1 N            1.6010     2.3620     0.9210 nu         1 AW6      -0.690100
      2 C            4.2040     0.4600    -0.4640 ca         1 AW6      -0.001000
      3 O            2.0960     0.7120     2.7480 o          1 AW6      -0.524000
      4 C01         -6.1660    -1.7560     0.2410 ca         1 AW6      -0.101000
      5 C02         -6.0600    -1.4740     1.5970 ca         1 AW6      -0.089000
      6 C03         -4.9480    -0.8060     2.0840 ca         1 AW6      -0.068000
      7 C04         -3.9320    -0.4150     1.2190 ca         1 AW6      -0.123600
      8 C05         -4.0400    -0.7010    -0.1470 ca         1 AW6      -0.135600
      9 C06         -5.1600    -1.3710    -0.6290 ca         1 AW6      -0.060000
     10 C07         -2.7510     0.2990     1.7650 c          1 AW6       0.591300
     11 C08         -1.6880     0.6890     0.8180 ca         1 AW6      -0.121600
     12 C09         -1.8080     0.4030    -0.5560 ca         1 AW6      -0.214600
     13 C10         -2.9760    -0.3000    -1.0870 c          1 AW6       0.614300
     14 C11         -0.5730     1.3480     1.2910 ca         1 AW6      -0.042000
     15 C12          0.4470     1.7210     0.4200 ca         1 AW6       0.234000
     16 C13          0.3470     1.4500    -0.9390 ca         1 AW6       0.093100
     17 C14         -0.7970     0.7940    -1.4350 ca         1 AW6       0.131100
     18 O02         -2.6660     0.5490     2.9510 o          1 AW6      -0.496100
     19 O03         -0.8150     0.5730    -2.7450 oh         1 AW6      -0.563100
     20 O04          1.3400     1.8180    -1.7460 oh         1 AW6      -0.536100
     21 S            2.7540     1.3930     1.6510 sy         1 AW6       1.143600
     22 C15          3.1810     0.1860     0.4330 ca         1 AW6      -0.307500
     23 O05          3.8920     2.2590     1.8910 o          1 AW6      -0.524000
     24 C16          2.4380    -0.9840     0.3440 ca         1 AW6      -0.001000
     25 C17          2.7190    -1.8920    -0.6630 ca         1 AW6      -0.127000
     26 C18          3.7410    -1.6140    -1.5580 ca         1 AW6       0.168000
     27 C19          4.4920    -0.4500    -1.4650 ca         1 AW6      -0.127000
     28 CL           4.0930    -2.7450    -2.8130 cl         1 AW6      -0.186000
     29 H08          2.0310     3.0300     0.2880 hn         1 AW6       0.341000
     30 H            4.7850     1.3690    -0.3930 ha         1 AW6       0.141500
     31 H01         -7.0360    -2.2750    -0.1380 ha         1 AW6       0.124000
     32 H02         -6.8460    -1.7760     2.2770 ha         1 AW6       0.124000
     33 H03         -4.8690    -0.5870     3.1400 ha         1 AW6       0.142000
     34 H04         -5.2460    -1.5910    -1.6840 ha         1 AW6       0.138000
     35 H05         -0.4840     1.5900     2.3410 ha         1 AW6       0.172000
     36 H06         -1.6440     0.0860    -2.9570 ho         1 AW6       0.530000
     37 H07          1.1560     1.5780    -2.6640 ho         1 AW6       0.503000
     38 H09          1.6490    -1.2040     1.0510 ha         1 AW6       0.141500
     39 H10          2.1470    -2.8060    -0.7430 ha         1 AW6       0.136000
     40 H11          5.2910    -0.2530    -2.1650 ha         1 AW6       0.136000
     41 O01         -3.0680    -0.5560    -2.2840 o          1 AW6      -0.564100
@<TRIPOS>BOND
     1     1    15 1   
     2     1    21 1   
     3     1    29 1   
     4     2    22 ar  
     5     2    27 ar  
     6     2    30 1   
     7     3    21 2   
     8     4     5 ar  
     9     4     9 ar  
    10     4    31 1   
    11     5     6 ar  
    12     5    32 1   
    13     6     7 ar  
    14     6    33 1   
    15     7     8 ar  
    16     7    10 1   
    17     8     9 ar  
    18     8    13 1   
    19     9    34 1   
    20    10    11 1   
    21    10    18 2   
    22    11    12 ar  
    23    11    14 ar  
    24    12    13 1   
    25    12    17 ar  
    26    13    41 2   
    27    14    15 ar  
    28    14    35 1   
    29    15    16 ar  
    30    16    17 ar  
    31    16    20 1   
    32    17    19 1   
    33    19    36 1   
    34    20    37 1   
    35    21    22 1   
    36    21    23 2   
    37    22    24 ar  
    38    24    25 ar  
    39    24    38 1   
    40    25    26 ar  
    41    25    39 1   
    42    26    27 ar  
    43    26    28 1   
    44    27    40 1   
@<TRIPOS>SUBSTRUCTURE
     1 AW6         1 TEMP              0 ****  ****    0 ROOT
