@<TRIPOS>MOLECULE
AW6
   41    44     1     0     0
SMALL
No Charge or Current Charge


@<TRIPOS>ATOM
      1 N            1.8060     2.4920     0.3180 nu         1 AW6      -0.690100
      2 C            3.8080    -0.1210    -0.4910 ca         1 AW6      -0.001000
      3 O            2.4040     1.8460     2.6650 o          1 AW6      -0.524000
      4 C01         -5.9860    -1.9620     0.0700 ca         1 AW6      -0.101000
      5 C02         -5.4280    -2.3390     1.2980 ca         1 AW6      -0.089000
      6 C03         -4.1820    -1.8250     1.6890 ca         1 AW6      -0.068000
      7 C04         -3.4780    -0.9260     0.8550 ca         1 AW6      -0.123600
      8 C05         -4.0420    -0.5440    -0.3880 ca         1 AW6      -0.135600
      9 C06         -5.2990    -1.0700    -0.7690 ca         1 AW6      -0.060000
     10 C07         -2.1390    -0.3860     1.2960 c          1 AW6       0.591300
     11 C08         -1.4220     0.5750     0.3740 ca         1 AW6      -0.121600
     12 C09         -1.9800     0.9620    -0.8740 ca         1 AW6      -0.214600
     13 C10         -3.3240     0.4130    -1.3080 c          1 AW6       0.614300
     14 C11         -0.1670     1.0950     0.7700 ca         1 AW6      -0.042000
     15 C12          0.5520     1.9830    -0.0510 ca         1 AW6       0.234000
     16 C13         -0.0070     2.3710    -1.2880 ca         1 AW6       0.093100
     17 C14         -1.2590     1.8650    -1.6940 ca         1 AW6       0.131100
     18 O02         -1.6460    -0.7200     2.3680 o          1 AW6      -0.496100
     19 O03         -1.7570     2.2680    -2.9050 oh         1 AW6      -0.563100
     20 O04          0.6550     3.2370    -2.1280 oh         1 AW6      -0.536100
     21 S            2.9870     1.8230     1.3200 sy         1 AW6       1.143600
     22 C15          3.1730     0.1290     0.7430 ca         1 AW6      -0.307500
     23 O05          4.1870     2.5900     0.9730 o          1 AW6      -0.524000
     24 C16          2.6710    -0.9470     1.5070 ca         1 AW6      -0.001000
     25 C17          2.8040    -2.2630     1.0320 ca         1 AW6      -0.127000
     26 C18          3.4360    -2.5070    -0.1970 ca         1 AW6       0.168000
     27 C19          3.9380    -1.4400    -0.9580 ca         1 AW6      -0.127000
     28 Cl           3.5980    -4.1560    -0.7870 cl         1 AW6      -0.186000
     29 H08          2.2650     3.0670    -0.3760 hn         1 AW6       0.341000
     30 H            4.1960     0.7020    -1.0920 ha         1 AW6       0.141500
     31 H01         -6.9520    -2.3590    -0.2350 ha         1 AW6       0.124000
     32 H02         -5.9600    -3.0300     1.9490 ha         1 AW6       0.124000
     33 H03         -3.7650    -2.1310     2.6480 ha         1 AW6       0.142000
     34 H04         -5.7490    -0.7890    -1.7190 ha         1 AW6       0.138000
     35 H05          0.2450     0.8070     1.7310 ha         1 AW6       0.172000
     36 H06         -2.6330     1.8130    -3.0200 ho         1 AW6       0.530000
     37 H07          0.0740     3.3510    -2.9160 ho         1 AW6       0.503000
     38 H09          2.1790    -0.7740     2.4630 ha         1 AW6       0.141500
     39 H10          2.4180    -3.0940     1.6170 ha         1 AW6       0.136000
     40 H11          4.4250    -1.6350    -1.9100 ha         1 AW6       0.136000
     41 O01         -3.8150     0.7410    -2.3850 o          1 AW6      -0.564100
@<TRIPOS>BOND
     1     1    15 1   
     2     1    21 1   
     3     1    29 1   
     4     2    22 ar  
     5     2    27 ar  
     6     2    30 1   
     7     3    21 2   
     8     4     5 ar  
     9     4     9 ar  
    10     4    31 1   
    11     5     6 ar  
    12     5    32 1   
    13     6     7 ar  
    14     6    33 1   
    15     7     8 ar  
    16     7    10 1   
    17     8     9 ar  
    18     8    13 1   
    19     9    34 1   
    20    10    11 1   
    21    10    18 2   
    22    11    12 ar  
    23    11    14 ar  
    24    12    13 1   
    25    12    17 ar  
    26    13    41 2   
    27    14    15 ar  
    28    14    35 1   
    29    15    16 ar  
    30    16    17 ar  
    31    16    20 1   
    32    17    19 1   
    33    19    36 1   
    34    20    37 1   
    35    21    22 1   
    36    21    23 2   
    37    22    24 ar  
    38    24    25 ar  
    39    24    38 1   
    40    25    26 ar  
    41    25    39 1   
    42    26    27 ar  
    43    26    28 1   
    44    27    40 1   
@<TRIPOS>SUBSTRUCTURE
     1 AW6         1 TEMP              0 ****  ****    0 ROOT
