@<TRIPOS>MOLECULE
AW7
   28    30     1     0     0
SMALL
abcg2


@<TRIPOS>ATOM
      1 N1          -4.2760    -0.6690     0.4660 nb         1 AW7      -0.207500
      2 N3           5.2520     0.9200     0.2910 na         1 AW7       0.003800
      3 C4          -3.6900     1.5740    -0.9290 ca         1 AW7       0.142400
      4 C5          -0.7710    -0.7680     0.4420 ca         1 AW7       0.114100
      5 C6          -0.1270     0.0820     1.3270 ca         1 AW7      -0.108500
      6 C7           1.2220     0.3400     1.1610 ca         1 AW7      -0.084000
      7 C8           1.9430    -0.2400     0.1150 ca         1 AW7      -0.109500
      8 C10         -0.0820    -1.3560    -0.6040 ca         1 AW7      -0.108500
      9 C13          5.4750     0.0620    -0.7170 cc         1 AW7      -0.176000
     10 C1          -5.0170     1.2710    -0.6900 ca         1 AW7      -0.262000
     11 C2          -5.2550     0.1090     0.0280 ca         1 AW7       0.142400
     12 C3          -3.0500    -0.2700     0.1760 ca         1 AW7       0.350300
     13 N2          -2.6960     0.8040    -0.4990 nb         1 AW7      -0.207500
     14 O1          -2.0970    -1.0910     0.6390 os         1 AW7      -0.345400
     15 C9           1.2700    -1.0910    -0.7600 ca         1 AW7      -0.084000
     16 C11          3.3720     0.0340    -0.0580 cd         1 AW7       0.303500
     17 C12          4.2710    -0.5440    -0.9810 cd         1 AW7      -0.213000
     18 N4           3.9950     0.9230     0.7050 nc         1 AW7      -0.519800
     19 H2          -3.4090     2.4610    -1.4850 h4         1 AW7       0.027600
     20 H3          -0.6720     0.5320     2.1470 ha         1 AW7       0.127000
     21 H4           1.7230     0.9990     1.8580 ha         1 AW7       0.124000
     22 H5          -0.5930    -2.0190    -1.2900 ha         1 AW7       0.127000
     23 H6           6.4490    -0.0560    -1.1620 h4         1 AW7       0.154000
     24 H7          -5.8210     1.9020    -1.0390 ha         1 AW7       0.138000
     25 H8          -6.2650    -0.2080     0.2580 h4         1 AW7       0.027600
     26 H9           1.7970    -1.5540    -1.5850 ha         1 AW7       0.124000
     27 H10          4.0790    -1.2960    -1.7280 ha         1 AW7       0.146000
     28 H1           5.9230     1.5330     0.7250 hn         1 AW7       0.372000
@<TRIPOS>BOND
     1     1    11 ar  
     2     1    12 ar  
     3     2     9 1   
     4     2    18 1   
     5     2    28 1   
     6     3    10 ar  
     7     3    13 ar  
     8     3    19 1   
     9     4     5 ar  
    10     4     8 ar  
    11     4    14 1   
    12     5     6 ar  
    13     5    20 1   
    14     6     7 ar  
    15     6    21 1   
    16     7    15 ar  
    17     7    16 1   
    18     8    15 ar  
    19     8    22 1   
    20     9    17 2   
    21     9    23 1   
    22    10    11 ar  
    23    10    24 1   
    24    11    25 1   
    25    12    13 ar  
    26    12    14 1   
    27    15    26 1   
    28    16    17 1   
    29    16    18 2   
    30    17    27 1   
@<TRIPOS>SUBSTRUCTURE
     1 AW7         1 TEMP              0 ****  ****    0 ROOT
