@<TRIPOS>MOLECULE
AW7
   28    30     1     0     0
SMALL
No Charge or Current Charge


@<TRIPOS>ATOM
      1 N1          -4.2830    -0.6370     0.5400 nb         1 AW7      -0.207500
      2 N3           5.3050     0.9490     0.5040 na         1 AW7       0.003800
      3 C4          -3.9170     1.6820    -0.8950 ca         1 AW7       0.142400
      4 C5          -0.7690    -0.9080     0.0230 ca         1 AW7       0.114100
      5 C6          -0.2870     0.1620     0.7980 ca         1 AW7      -0.108500
      6 C7           1.0830     0.4780     0.7870 ca         1 AW7      -0.084000
      7 C8           1.9930    -0.2720     0.0060 ca         1 AW7      -0.109500
      8 C10          0.1250    -1.6750    -0.7360 ca         1 AW7      -0.108500
      9 C13          5.6320     0.0580    -0.5140 cc         1 AW7      -0.176000
     10 C1          -5.1550     1.4380    -0.2840 ca         1 AW7      -0.262000
     11 C2          -5.2970     0.2430     0.4360 ca         1 AW7       0.142400
     12 C3          -3.1180    -0.3220    -0.0700 ca         1 AW7       0.350300
     13 N2          -2.9010     0.8040    -0.7930 nb         1 AW7      -0.207500
     14 O1          -2.1040    -1.2490     0.0320 os         1 AW7      -0.345400
     15 C9           1.4960    -1.3600    -0.7480 ca         1 AW7      -0.084000
     16 C11          3.4400     0.0510     0.0050 cd         1 AW7       0.303500
     17 C12          4.4330    -0.5130    -0.8300 cd         1 AW7      -0.213000
     18 N4           3.9560     0.9500     0.8280 nc         1 AW7      -0.519800
     19 H2          -3.7340     2.5860    -1.4730 h4         1 AW7       0.027600
     20 H3          -0.9700     0.7460     1.4100 ha         1 AW7       0.127000
     21 H4           1.4310     1.3130     1.3920 ha         1 AW7       0.124000
     22 H5          -0.2440    -2.5150    -1.3200 ha         1 AW7       0.127000
     23 H6           6.6350    -0.0790    -0.9020 h4         1 AW7       0.154000
     24 H7          -5.9750     2.1470    -0.3670 ha         1 AW7       0.138000
     25 H8          -6.2300    -0.0160     0.9330 h4         1 AW7       0.027600
     26 H9           2.1650    -1.9740    -1.3450 ha         1 AW7       0.124000
     27 H10          4.2800    -1.2650    -1.5950 ha         1 AW7       0.146000
     28 H1           5.9610     1.5600     0.9920 hn         1 AW7       0.372000
@<TRIPOS>BOND
     1     1    11 ar  
     2     1    12 ar  
     3     2     9 1   
     4     2    18 1   
     5     2    28 1   
     6     3    10 ar  
     7     3    13 ar  
     8     3    19 1   
     9     4     5 ar  
    10     4     8 ar  
    11     4    14 1   
    12     5     6 ar  
    13     5    20 1   
    14     6     7 ar  
    15     6    21 1   
    16     7    15 ar  
    17     7    16 1   
    18     8    15 ar  
    19     8    22 1   
    20     9    17 2   
    21     9    23 1   
    22    10    11 ar  
    23    10    24 1   
    24    11    25 1   
    25    12    13 ar  
    26    12    14 1   
    27    15    26 1   
    28    16    17 1   
    29    16    18 2   
    30    17    27 1   
@<TRIPOS>SUBSTRUCTURE
     1 AW7         1 TEMP              0 ****  ****    0 ROOT
