@<TRIPOS>MOLECULE
AW8
   42    45     1     0     0
SMALL
abcg2


@<TRIPOS>ATOM
      1 CL1         -6.8390    -0.4110     0.1840 cl         1 AW8      -0.235000
      2 C16         -5.1120    -0.5450     0.1280 ca         1 AW8       0.121000
      3 C14         -4.5320    -1.6680    -0.4400 ca         1 AW8      -0.124500
      4 C12         -3.1500    -1.7660    -0.4760 ca         1 AW8      -0.062000
      5 C15         -4.3310     0.4720     0.6540 ca         1 AW8      -0.124500
      6 C13         -2.9500     0.3680     0.5960 ca         1 AW8      -0.062000
      7 C11         -2.3380    -0.7500     0.0300 cp         1 AW8      -0.113500
      8 C10         -0.8690    -0.9350     0.0040 cp         1 AW8       0.420500
      9 N9          -0.4440    -2.1370     0.2700 nb         1 AW8      -0.667000
     10 C2           0.8810    -2.4110     0.2620 ca         1 AW8       0.218000
     11 C4           1.2910    -3.7260     0.5660 ca         1 AW8      -0.044000
     12 C6           2.6170    -4.0640     0.5750 ca         1 AW8      -0.175000
     13 C5           3.5590    -3.0720     0.2740 ca         1 AW8       0.166000
     14 F27          4.8550    -3.4200     0.2860 f          1 AW8      -0.192000
     15 C3           3.2180    -1.7880    -0.0350 ca         1 AW8      -0.141000
     16 C8           0.0300     0.1380    -0.3300 ca         1 AW8       0.208400
     17 N19         -0.4870     1.3730    -0.6100 ne         1 AW8      -0.725100
     18 C20          0.3430     2.3640    -0.7380 c2         1 AW8       0.724200
     19 C22         -0.2440     3.7300    -0.9020 c3         1 AW8      -0.139400
     20 N18          1.6810     2.2360    -0.7280 nh         1 AW8      -0.724600
     21 C17          2.3210     0.9440    -0.7840 c6         1 AW8       0.511800
     22 O21          2.7430     0.6320    -2.0920 oh         1 AW8      -0.680000
     23 C7           1.3790    -0.1310    -0.3510 ca         1 AW8      -0.160300
     24 C1           1.8530    -1.4280    -0.0420 ca         1 AW8       0.016000
     25 C23          2.5610     3.3780    -0.5920 c3         1 AW8       0.045800
     26 C24          2.7270     3.8700     0.8670 c          1 AW8       0.706000
     27 O25          3.5460     4.7980     1.0020 o          1 AW8      -0.708000
     28 O26          2.0400     3.3170     1.7390 o          1 AW8      -0.708000
     29 H1          -5.1450    -2.4590    -0.8510 ha         1 AW8       0.120000
     30 H2          -2.6980    -2.6450    -0.9130 ha         1 AW8       0.135500
     31 H3          -4.7900     1.3410     1.1060 ha         1 AW8       0.120000
     32 H4          -2.3510     1.1670     1.0070 ha         1 AW8       0.135500
     33 H5           0.5320    -4.4640     0.7930 ha         1 AW8       0.122000
     34 H6           2.9410    -5.0700     0.8060 ha         1 AW8       0.121000
     35 H7           3.9950    -1.0730    -0.2700 ha         1 AW8       0.131000
     36 H8          -1.3250     3.6430    -0.9580 hc         1 AW8       0.062033
     37 H9           0.0040     4.3700    -0.0550 hc         1 AW8       0.062033
     38 H10          0.1170     4.2250    -1.8050 hc         1 AW8       0.062033
     39 H11          3.1870     0.9810    -0.1140 h2         1 AW8       0.065700
     40 H12          3.6270     0.9850    -2.2380 ho         1 AW8       0.438000
     41 H13          3.5410     3.1150    -0.9940 h1         1 AW8       0.036200
     42 H14          2.2130     4.2060    -1.2120 h1         1 AW8       0.036200
@<TRIPOS>BOND
     1     1     2 1   
     2     2     3 ar  
     3     2     5 ar  
     4     3     4 ar  
     5     3    29 1   
     6     4     7 ar  
     7     4    30 1   
     8     5     6 ar  
     9     5    31 1   
    10     6     7 ar  
    11     6    32 1   
    12     7     8 1   
    13     8     9 ar  
    14     8    16 ar  
    15     9    10 ar  
    16    10    11 ar  
    17    10    24 ar  
    18    11    12 ar  
    19    11    33 1   
    20    12    13 ar  
    21    12    34 1   
    22    13    14 1   
    23    13    15 ar  
    24    15    24 ar  
    25    15    35 1   
    26    16    17 1   
    27    16    23 ar  
    28    17    18 2   
    29    18    19 1   
    30    18    20 1   
    31    19    36 1   
    32    19    37 1   
    33    19    38 1   
    34    20    21 1   
    35    20    25 1   
    36    21    22 1   
    37    21    23 1   
    38    21    39 1   
    39    22    40 1   
    40    23    24 ar  
    41    25    26 1   
    42    25    41 1   
    43    25    42 1   
    44    26    27 1   
    45    26    28 1   
@<TRIPOS>SUBSTRUCTURE
     1 AW8         1 TEMP              0 ****  ****    0 ROOT
