@<TRIPOS>MOLECULE
AW8
   42    45     1     0     0
SMALL
No Charge or Current Charge


@<TRIPOS>ATOM
      1 Cl1         -6.9560    -0.3060     0.2060 cl         1 AW8      -0.235000
      2 C16         -5.2090    -0.4990     0.1430 ca         1 AW8       0.121000
      3 C14         -4.6500    -1.6390    -0.4520 ca         1 AW8      -0.124500
      4 C12         -3.2540    -1.7940    -0.5010 ca         1 AW8      -0.062000
      5 C15         -4.3750     0.4850     0.6940 ca         1 AW8      -0.124500
      6 C13         -2.9780     0.3320     0.6450 ca         1 AW8      -0.062000
      7 C11         -2.3840    -0.8070     0.0370 cp         1 AW8      -0.113500
      8 C10         -0.8890    -0.9890    -0.0130 cp         1 AW8       0.420500
      9 N9          -0.4640    -2.2520     0.2410 nb         1 AW8      -0.667000
     10 C2           0.8580    -2.5250     0.2460 ca         1 AW8       0.218000
     11 C4           1.2820    -3.8380     0.5320 ca         1 AW8      -0.044000
     12 C6           2.6460    -4.1710     0.5520 ca         1 AW8      -0.175000
     13 C5           3.6020    -3.1870     0.2810 ca         1 AW8       0.166000
     14 F27          4.9140    -3.5050     0.2970 f          1 AW8      -0.192000
     15 C3           3.2070    -1.8740    -0.0090 ca         1 AW8      -0.141000
     16 C8           0.0270     0.0770    -0.3210 ca         1 AW8       0.208400
     17 N19         -0.3850     1.4000    -0.6250 ne         1 AW8      -0.725100
     18 C20          0.4350     2.3820    -0.8200 c2         1 AW8       0.724200
     19 C22         -0.1470     3.7590    -1.0370 c3         1 AW8      -0.139400
     20 N18          1.8130     2.2320    -0.7830 nh         1 AW8      -0.724600
     21 C17          2.3900     0.9070    -0.6580 c6         1 AW8       0.511800
     22 O21          2.9240     0.7220    -1.9400 oh         1 AW8      -0.680000
     23 C7           1.4040    -0.2070    -0.3280 ca         1 AW8      -0.160300
     24 C1           1.8340    -1.5270    -0.0300 ca         1 AW8       0.016000
     25 C23          2.7560     3.3830    -0.5580 c3         1 AW8       0.045800
     26 C24          2.7520     4.0390     0.8640 c          1 AW8       0.706000
     27 O25          2.4190     5.2120     0.9630 o          1 AW8      -0.708000
     28 O26          3.0610     3.3440     1.8240 o          1 AW8      -0.708000
     29 H1          -5.2980    -2.4030    -0.8750 ha         1 AW8       0.120000
     30 H2          -2.8380    -2.6850    -0.9690 ha         1 AW8       0.135500
     31 H3          -4.8090     1.3640     1.1630 ha         1 AW8       0.120000
     32 H4          -2.3520     1.0980     1.0960 ha         1 AW8       0.135500
     33 H5           0.5400    -4.6050     0.7430 ha         1 AW8       0.122000
     34 H6           2.9590    -5.1880     0.7750 ha         1 AW8       0.121000
     35 H7           3.9820    -1.1440    -0.2190 ha         1 AW8       0.131000
     36 H8          -1.2210     3.7080    -1.2510 hc         1 AW8       0.062033
     37 H9          -0.0190     4.3830    -0.1470 hc         1 AW8       0.062033
     38 H10          0.3280     4.2600    -1.8870 hc         1 AW8       0.062033
     39 H11          3.1870     0.9250     0.1030 h2         1 AW8       0.065700
     40 H12          2.7530     1.5990    -2.3350 ho         1 AW8       0.438000
     41 H13          3.7880     3.0520    -0.7320 h1         1 AW8       0.036200
     42 H14          2.5630     4.1720    -1.2960 h1         1 AW8       0.036200
@<TRIPOS>BOND
     1     1     2 1   
     2     2     3 ar  
     3     2     5 ar  
     4     3     4 ar  
     5     3    29 1   
     6     4     7 ar  
     7     4    30 1   
     8     5     6 ar  
     9     5    31 1   
    10     6     7 ar  
    11     6    32 1   
    12     7     8 1   
    13     8     9 ar  
    14     8    16 ar  
    15     9    10 ar  
    16    10    11 ar  
    17    10    24 ar  
    18    11    12 ar  
    19    11    33 1   
    20    12    13 ar  
    21    12    34 1   
    22    13    14 1   
    23    13    15 ar  
    24    15    24 ar  
    25    15    35 1   
    26    16    17 1   
    27    16    23 ar  
    28    17    18 2   
    29    18    19 1   
    30    18    20 1   
    31    19    36 1   
    32    19    37 1   
    33    19    38 1   
    34    20    21 1   
    35    20    25 1   
    36    21    22 1   
    37    21    23 1   
    38    21    39 1   
    39    22    40 1   
    40    23    24 ar  
    41    25    26 1   
    42    25    41 1   
    43    25    42 1   
    44    26    27 1   
    45    26    28 1   
@<TRIPOS>SUBSTRUCTURE
     1 AW8         1 TEMP              0 ****  ****    0 ROOT
