@<TRIPOS>MOLECULE
AW9
   14    13     1     0     0
SMALL
abcg2


@<TRIPOS>ATOM
      1 O3           2.3800    -0.6270    -1.0820 o          1 AW9      -0.711000
      2 C4           2.0470    -0.0890    -0.0140 c          1 AW9       0.717200
      3 O2           2.3850    -0.3840     1.1430 o          1 AW9      -0.711000
      4 C3           1.1980     1.1550    -0.1540 ce         1 AW9      -0.146200
      5 C2          -0.1330     1.2600    -0.1350 cf         1 AW9      -0.351200
      6 C1          -1.0140     0.0980     0.0330 c          1 AW9       0.596300
      7 O1          -0.6540    -1.0500     0.1560 o          1 AW9      -0.469000
      8 O           -2.2960     0.4610     0.0300 os         1 AW9      -0.468100
      9 C           -3.2710    -0.5710     0.1610 c3         1 AW9       0.158900
     10 H2           1.7590     2.0770    -0.2910 ha         1 AW9       0.141000
     11 H4          -0.6060     2.2280    -0.2520 ha         1 AW9       0.153000
     12 H6          -3.1980    -1.2960    -0.6500 h1         1 AW9       0.029700
     13 H7          -3.1800    -1.0920     1.1150 h1         1 AW9       0.029700
     14 H8          -4.2370    -0.0770     0.1150 h1         1 AW9       0.029700
@<TRIPOS>BOND
     1     1     2 1   
     2     2     3 1   
     3     2     4 1   
     4     4     5 2   
     5     4    10 1   
     6     5     6 1   
     7     5    11 1   
     8     6     7 2   
     9     6     8 1   
    10     8     9 1   
    11     9    12 1   
    12     9    13 1   
    13     9    14 1   
@<TRIPOS>SUBSTRUCTURE
     1 AW9         1 TEMP              0 ****  ****    0 ROOT
