@<TRIPOS>MOLECULE
AW9
   14    13     1     0     0
SMALL
No Charge or Current Charge


@<TRIPOS>ATOM
      1 O3           3.4690     0.3440    -0.2400 o          1 AW9      -0.711000
      2 C4           2.3030     0.0140    -0.0820 c          1 AW9       0.717200
      3 O2           1.9860    -1.1040     0.2860 o          1 AW9      -0.711000
      4 C3           1.2590     1.0670    -0.3650 ce         1 AW9      -0.146200
      5 C2          -0.1200     1.0610    -0.2990 cf         1 AW9      -0.351200
      6 C1          -1.0730    -0.0230     0.0880 c          1 AW9       0.596300
      7 O1          -0.7820    -1.1570     0.4320 o          1 AW9      -0.469000
      8 O           -2.3590     0.4420     0.0010 os         1 AW9      -0.468100
      9 C           -3.4310    -0.4580     0.3350 c3         1 AW9       0.158900
     10 H2           1.7100     2.0060    -0.6820 ha         1 AW9       0.141000
     11 H4          -0.6140     1.9930    -0.5700 ha         1 AW9       0.153000
     12 H6          -3.4230    -1.3360    -0.3240 h1         1 AW9       0.029700
     13 H7          -3.3440    -0.8010     1.3750 h1         1 AW9       0.029700
     14 H8          -4.4000     0.0440     0.2220 h1         1 AW9       0.029700
@<TRIPOS>BOND
     1     1     2 1   
     2     2     3 1   
     3     2     4 1   
     4     4     5 2   
     5     4    10 1   
     6     5     6 1   
     7     5    11 1   
     8     6     7 2   
     9     6     8 1   
    10     8     9 1   
    11     9    12 1   
    12     9    13 1   
    13     9    14 1   
@<TRIPOS>SUBSTRUCTURE
     1 AW9         1 TEMP              0 ****  ****    0 ROOT
