@<TRIPOS>MOLECULE
AWA
   29    30     1     0     0
SMALL
bcc


@<TRIPOS>ATOM
      1 N1          -3.0740     0.9180    -0.0880 ne         1 AWA      -0.629100
      2 C4           1.6830     0.5540     0.6580 ca         1 AWA      -0.078500
      3 C5           1.0570     0.0590    -0.4790 ca         1 AWA      -0.120300
      4 C6           1.8320    -0.6330    -1.4050 ca         1 AWA      -0.078500
      5 C7           3.1870    -0.8290    -1.2060 ca         1 AWA      -0.195000
      6 C8          -0.4230     0.2260    -0.7020 c6         1 AWA       0.165000
      7 C10         -2.6920    -0.2820     0.1170 cf         1 AWA       0.414300
      8 C1           5.8080    -0.0350     1.1790 c3         1 AWA       0.128700
      9 C2           3.8070    -0.3220    -0.0630 ca         1 AWA       0.129100
     10 C3           3.0440     0.3740     0.8720 ca         1 AWA      -0.195000
     11 C9          -1.2490    -0.6730     0.2060 c6         1 AWA      -0.181700
     12 C11         -2.1140     1.9420    -0.1960 c          1 AWA       0.823900
     13 O2          -2.4650     3.1030    -0.0670 o          1 AWA      -0.652500
     14 N2          -0.8360     1.5920    -0.4480 ns         1 AWA      -0.607900
     15 C12         -3.7550    -1.3570     0.3550 c          1 AWA       0.843300
     16 O3          -4.8180    -1.2510    -0.2700 o          1 AWA      -0.793300
     17 O4          -3.4130    -2.2190     1.1830 o          1 AWA      -0.793300
     18 H1           1.1130     1.0990     1.4010 ha         1 AWA       0.139500
     19 H2           1.3710    -1.0260    -2.3040 ha         1 AWA       0.139500
     20 H3           3.7740    -1.3670    -1.9400 ha         1 AWA       0.133000
     21 H4          -0.6420    -0.0440    -1.7440 h1         1 AWA       0.042700
     22 H5           6.8540    -0.3080     1.0620 h1         1 AWA       0.035700
     23 H6           5.7350     1.0540     1.2420 h1         1 AWA       0.035700
     24 H7           5.4360    -0.4680     2.1110 h1         1 AWA       0.035700
     25 H8           3.4870     0.7850     1.7690 ha         1 AWA       0.133000
     26 H9          -1.1110    -1.7180    -0.0660 hc         1 AWA       0.075700
     27 H10         -0.9220    -0.5710     1.2470 hc         1 AWA       0.075700
     28 H11         -0.1970     2.3380    -0.6820 hn         1 AWA       0.298500
     29 O1           5.1300    -0.5470     0.0500 os         1 AWA      -0.325900
@<TRIPOS>BOND
     1     1     7 2   
     2     1    12 1   
     3     2     3 ar  
     4     2    10 ar  
     5     2    18 1   
     6     3     4 ar  
     7     3     6 1   
     8     4     5 ar  
     9     4    19 1   
    10     5     9 ar  
    11     5    20 1   
    12     6    11 1   
    13     6    14 1   
    14     6    21 1   
    15     7    11 1   
    16     7    15 1   
    17     8    22 1   
    18     8    23 1   
    19     8    24 1   
    20     8    29 1   
    21     9    10 ar  
    22     9    29 1   
    23    10    25 1   
    24    11    26 1   
    25    11    27 1   
    26    12    13 2   
    27    12    14 1   
    28    14    28 1   
    29    15    16 1   
    30    15    17 1   
@<TRIPOS>SUBSTRUCTURE
     1 AWA         1 TEMP              0 ****  ****    0 ROOT
