@<TRIPOS>MOLECULE
AWA
   29    30     1     0     0
SMALL
No Charge or Current Charge


@<TRIPOS>ATOM
      1 N1          -3.0180     1.0030    -0.0170 ne         1 AWA      -0.629100
      2 C4           1.6550     0.4780     0.6990 ca         1 AWA      -0.060500
      3 C5           1.0480    -0.0230    -0.4710 ca         1 AWA      -0.120300
      4 C6           1.8470    -0.6500    -1.4470 ca         1 AWA      -0.060500
      5 C7           3.2330    -0.7770    -1.2520 ca         1 AWA      -0.177000
      6 C8          -0.4610     0.1110    -0.6910 c6         1 AWA       0.165000
      7 C10         -2.7630    -0.2680     0.2050 cf         1 AWA       0.414300
      8 C1           5.9170     0.0380     1.2040 c3         1 AWA       0.151900
      9 C2           3.8380    -0.2810    -0.0870 ca         1 AWA       0.129100
     10 C3           3.0420     0.3500     0.8930 ca         1 AWA      -0.177000
     11 C9          -1.2910    -0.6890     0.3210 c6         1 AWA      -0.181700
     12 C11         -2.0810     2.0000    -0.2500 c          1 AWA       0.681400
     13 O2          -2.2980     3.1920    -0.1590 o          1 AWA      -0.577000
     14 N2          -0.8570     1.5160    -0.6350 ns         1 AWA      -0.540900
     15 C12         -3.8870    -1.3220     0.3140 c          1 AWA       0.632700
     16 O3          -5.0600    -0.9720     0.1960 o          1 AWA      -0.688000
     17 O4          -3.5900    -2.4950     0.5250 o          1 AWA      -0.688000
     18 H1           1.0520     0.9690     1.4600 ha         1 AWA       0.121500
     19 H2           1.3950    -1.0410    -2.3570 ha         1 AWA       0.121500
     20 H3           3.8420    -1.2630    -2.0100 ha         1 AWA       0.115000
     21 H4          -0.7090    -0.2490    -1.7000 h1         1 AWA       0.042700
     22 H5           6.9860    -0.1870     1.1070 h1         1 AWA       0.035700
     23 H6           5.8060     1.1240     1.3130 h1         1 AWA       0.035700
     24 H7           5.5480    -0.4480     2.1160 h1         1 AWA       0.035700
     25 H8           3.4780     0.7460     1.8060 ha         1 AWA       0.115000
     26 H9          -1.1630    -1.7640     0.1490 hc         1 AWA       0.075700
     27 H10         -0.9520    -0.4830     1.3440 hc         1 AWA       0.075700
     28 H11         -0.1540     2.2150    -0.8340 hn         1 AWA       0.298500
     29 O1           5.2020    -0.4350     0.0480 os         1 AWA      -0.349100
@<TRIPOS>BOND
     1     1     7 2   
     2     1    12 1   
     3     2     3 ar  
     4     2    10 ar  
     5     2    18 1   
     6     3     4 ar  
     7     3     6 1   
     8     4     5 ar  
     9     4    19 1   
    10     5     9 ar  
    11     5    20 1   
    12     6    11 1   
    13     6    14 1   
    14     6    21 1   
    15     7    11 1   
    16     7    15 1   
    17     8    22 1   
    18     8    23 1   
    19     8    24 1   
    20     8    29 1   
    21     9    10 ar  
    22     9    29 1   
    23    10    25 1   
    24    11    26 1   
    25    11    27 1   
    26    12    13 2   
    27    12    14 1   
    28    14    28 1   
    29    15    16 1   
    30    15    17 1   
@<TRIPOS>SUBSTRUCTURE
     1 AWA         1 TEMP              0 ****  ****    0 ROOT
