@<TRIPOS>MOLECULE
AWB
   79    80     1     0     0
SMALL
No Charge or Current Charge


@<TRIPOS>ATOM
      1 C           24.4480    87.6800   -24.4120 c3         1 AWB      -0.089100
      2 N           17.8930    88.0350   -27.5580 ns         1 AWB      -0.484900
      3 O           20.0640    86.5060   -30.0070 os         1 AWB      -0.464100
      4 C1          25.4270    87.8140   -25.5950 c3         1 AWB      -0.076400
      5 N1          13.6710    86.6550   -24.6550 ns         1 AWB      -0.195000
      6 C2          24.7160    88.1320   -26.9270 c3         1 AWB      -0.080400
      7 O2          21.6100    87.9400   -28.0780 os         1 AWB      -0.469100
      8 C3          25.6920    88.2580   -28.1220 c3         1 AWB      -0.075400
      9 C4          25.0710    88.7930   -29.4410 c3         1 AWB      -0.073400
     10 O4          17.6360    90.2670   -27.6650 o          1 AWB      -0.601100
     11 C5          24.3660    87.7550   -30.3600 c3         1 AWB      -0.066400
     12 O5          12.1200    85.2740   -23.6940 o          1 AWB      -0.580100
     13 C6          23.0330    87.1340   -29.8420 c3         1 AWB      -0.128700
     14 O6          15.9320    86.6620   -26.2840 oh         1 AWB      -0.556100
     15 C7          22.3020    86.1910   -30.8690 c3         1 AWB       0.168300
     16 O7          23.2240    85.1460   -31.2620 os         1 AWB      -0.462100
     17 C8          21.0210    85.4780   -30.3070 c3         1 AWB       0.178300
     18 O8          23.8550    86.2230   -33.1950 o          1 AWB      -0.472000
     19 C9          19.4490    86.5070   -28.7820 c          1 AWB       0.654100
     20 C10         19.1620    87.9570   -28.3270 c3         1 AWB       0.032700
     21 C11         20.4070    88.5690   -27.5880 c3         1 AWB       0.183300
     22 C12         22.0630    88.2210   -29.3420 c          1 AWB       0.666100
     23 C13         20.4200    88.3230   -26.0640 c3         1 AWB      -0.102100
     24 C15         15.9530    89.0910   -26.4180 ca         1 AWB      -0.166600
     25 C16         15.3840    87.8700   -25.9550 ca         1 AWB       0.166100
     26 C17         14.2090    87.8770   -25.1600 ca         1 AWB      -0.153000
     27 C18         13.5930    89.1030   -24.8410 ca         1 AWB      -0.061000
     28 C19         14.1390    90.3060   -25.3030 ca         1 AWB      -0.141000
     29 C20         15.3050    90.3020   -26.0790 ca         1 AWB      -0.024000
     30 C21         12.4090    86.3730   -24.1560 c          1 AWB       0.601900
     31 C22         20.3380    84.5060   -31.2900 c3         1 AWB      -0.106100
     32 C23         23.9510    85.2820   -32.4200 c          1 AWB       0.594100
     33 C24         24.9300    84.1180   -32.6130 c3         1 AWB      -0.132400
     34 C25         24.4670    83.0660   -33.6620 c3         1 AWB      -0.050700
     35 C26         23.0880    82.4540   -33.3240 c3         1 AWB      -0.093100
     36 C27         24.5000    83.6110   -35.1080 c3         1 AWB      -0.093100
     37 H           24.9930    87.4520   -23.4880 hc         1 AWB       0.032033
     38 HA          23.8920    88.6130   -24.2610 hc         1 AWB       0.032033
     39 HB          23.7280    86.8730   -24.5930 hc         1 AWB       0.032033
     40 HN          17.4850    87.1810   -27.1850 hn         1 AWB       0.347500
     41 H1          26.1520    88.6060   -25.3690 hc         1 AWB       0.036200
     42 H1A         25.9930    86.8800   -25.6980 hc         1 AWB       0.036200
     43 HN1         14.3280    85.8890   -24.5760 hn         1 AWB       0.153000
     44 H2          23.9910    87.3360   -27.1170 hc         1 AWB       0.040200
     45 H2A         24.1520    89.0660   -26.8180 hc         1 AWB       0.040200
     46 H3          26.4910    88.9500   -27.8300 hc         1 AWB       0.037700
     47 H3A         26.1760    87.2910   -28.3080 hc         1 AWB       0.037700
     48 H4          24.3990    89.6320   -29.2210 hc         1 AWB       0.044700
     49 H4A         25.8910    89.2270   -30.0280 hc         1 AWB       0.044700
     50 H5          24.1640    88.2490   -31.3190 hc         1 AWB       0.058200
     51 H5A         25.0840    86.9540   -30.5730 hc         1 AWB       0.058200
     52 H6          23.2700    86.4900   -28.9900 hc         1 AWB       0.087700
     53 HO6         15.2520    85.9690   -26.1500 ho         1 AWB       0.489000
     54 H7          21.9780    86.7870   -31.7350 h1         1 AWB       0.098700
     55 H8          21.3120    84.9250   -29.4030 h1         1 AWB       0.074700
     56 H10         19.0210    88.5290   -29.2530 h1         1 AWB       0.115700
     57 H11         20.4320    89.6560   -27.7540 h1         1 AWB       0.079700
     58 H13         19.5990    88.8570   -25.5720 hc         1 AWB       0.057033
     59 H13A        20.3240    87.2540   -25.8390 hc         1 AWB       0.057033
     60 H13B        21.3600    88.6830   -25.6280 hc         1 AWB       0.057033
     61 H18         12.7010    89.1430   -24.2200 ha         1 AWB       0.126000
     62 H19         13.6610    91.2500   -25.0500 ha         1 AWB       0.131000
     63 H20         15.7070    91.2560   -26.4150 ha         1 AWB       0.151000
     64 H21         11.7020    87.2180   -24.2270 h5         1 AWB       0.026200
     65 H22         20.9780    83.6370   -31.4760 hc         1 AWB       0.055367
     66 H22A        19.3920    84.1410   -30.8750 hc         1 AWB       0.055367
     67 H22B        20.1320    84.9990   -32.2470 hc         1 AWB       0.055367
     68 H24         25.8990    84.5240   -32.9270 hc         1 AWB       0.072700
     69 H24A        25.0480    83.5980   -31.6550 hc         1 AWB       0.072700
     70 H25         25.1950    82.2460   -33.6210 hc         1 AWB       0.049700
     71 H26         22.8670    81.6130   -33.9930 hc         1 AWB       0.040200
     72 H26A        23.0680    82.0810   -32.2930 hc         1 AWB       0.040200
     73 H26B        22.2900    83.1970   -33.4420 hc         1 AWB       0.040200
     74 H27         24.2830    82.8110   -35.8260 hc         1 AWB       0.040200
     75 H27A        23.7560    84.4040   -35.2520 hc         1 AWB       0.040200
     76 H27B        25.4900    84.0190   -35.3480 hc         1 AWB       0.040200
     77 C14         17.2160    89.1920   -27.2590 c          1 AWB       0.617700
     78 O1          19.1960    85.5010   -28.1300 o          1 AWB      -0.525000
     79 O3          21.6880    89.1740   -30.0110 o          1 AWB      -0.522000
@<TRIPOS>BOND
     1     1     4 1   
     2     1    37 1   
     3     1    38 1   
     4     1    39 1   
     5     2    20 1   
     6     2    40 1   
     7     2    77 1   
     8     3    17 1   
     9     3    19 1   
    10     4     6 1   
    11     4    41 1   
    12     4    42 1   
    13     5    26 1   
    14     5    30 1   
    15     5    43 1   
    16     6     8 1   
    17     6    44 1   
    18     6    45 1   
    19     7    21 1   
    20     7    22 1   
    21     8     9 1   
    22     8    46 1   
    23     8    47 1   
    24     9    11 1   
    25     9    48 1   
    26     9    49 1   
    27    10    77 2   
    28    11    13 1   
    29    11    50 1   
    30    11    51 1   
    31    12    30 2   
    32    13    15 1   
    33    13    22 1   
    34    13    52 1   
    35    14    25 1   
    36    14    53 1   
    37    15    16 1   
    38    15    17 1   
    39    15    54 1   
    40    16    32 1   
    41    17    31 1   
    42    17    55 1   
    43    18    32 2   
    44    19    20 1   
    45    19    78 2   
    46    20    21 1   
    47    20    56 1   
    48    21    23 1   
    49    21    57 1   
    50    22    79 2   
    51    23    58 1   
    52    23    59 1   
    53    23    60 1   
    54    24    25 ar  
    55    24    29 ar  
    56    24    77 1   
    57    25    26 ar  
    58    26    27 ar  
    59    27    28 ar  
    60    27    61 1   
    61    28    29 ar  
    62    28    62 1   
    63    29    63 1   
    64    30    64 1   
    65    31    65 1   
    66    31    66 1   
    67    31    67 1   
    68    32    33 1   
    69    33    34 1   
    70    33    68 1   
    71    33    69 1   
    72    34    35 1   
    73    34    36 1   
    74    34    70 1   
    75    35    71 1   
    76    35    72 1   
    77    35    73 1   
    78    36    74 1   
    79    36    75 1   
    80    36    76 1   
@<TRIPOS>SUBSTRUCTURE
     1 AWB         1 TEMP              0 ****  ****    0 ROOT
