@<TRIPOS>MOLECULE
AWB
   79    80     1     0     0
SMALL
abcg2


@<TRIPOS>ATOM
      1 C           26.0350    84.8040   -25.8870 c3         1 AWB      -0.089100
      2 N           17.7410    88.5730   -27.4140 ns         1 AWB      -0.484900
      3 O           20.0050    87.1130   -29.7190 os         1 AWB      -0.464100
      4 C1          26.5740    86.0430   -26.5990 c3         1 AWB      -0.076400
      5 N1          13.8290    88.5180   -23.9230 ns         1 AWB      -0.195000
      6 C2          25.4970    86.7980   -27.3750 c3         1 AWB      -0.080400
      7 O2          21.3850    88.2700   -27.6860 os         1 AWB      -0.469100
      8 C3          26.0370    88.0270   -28.1040 c3         1 AWB      -0.075400
      9 C4          24.9870    88.9090   -28.7880 c3         1 AWB      -0.073400
     10 O4          16.5840    88.3830   -29.3350 o          1 AWB      -0.601100
     11 C5          24.1660    88.2090   -29.8830 c3         1 AWB      -0.066400
     12 O5          12.9830    87.6400   -21.9980 o          1 AWB      -0.580100
     13 C6          22.8740    87.5520   -29.3760 c3         1 AWB      -0.128700
     14 O6          16.2870    88.4890   -25.1610 oh         1 AWB      -0.556100
     15 C7          22.1950    86.7080   -30.4820 c3         1 AWB       0.168300
     16 O7          23.1160    85.6540   -30.8200 os         1 AWB      -0.462100
     17 C8          20.8910    86.0160   -30.0630 c3         1 AWB       0.178300
     18 O8          23.4400    86.4620   -32.9020 o          1 AWB      -0.472000
     19 C9          19.2930    87.0550   -28.5850 c          1 AWB       0.654100
     20 C10         18.9970    88.4770   -28.1070 c3         1 AWB       0.032700
     21 C11         20.1930    88.9540   -27.2200 c3         1 AWB       0.183300
     22 C12         21.9190    88.6210   -28.8730 c          1 AWB       0.666100
     23 C13         20.0850    88.6170   -25.7480 c3         1 AWB      -0.102100
     24 C15         15.2930    88.4950   -27.3390 ca         1 AWB      -0.166600
     25 C16         15.1760    88.4980   -25.9400 ca         1 AWB       0.166100
     26 C17         13.9060    88.5080   -25.3420 ca         1 AWB      -0.153000
     27 C18         12.7620    88.4920   -26.1250 ca         1 AWB      -0.061000
     28 C19         12.8670    88.4670   -27.5110 ca         1 AWB      -0.141000
     29 C20         14.1180    88.4780   -28.0990 ca         1 AWB      -0.024000
     30 C21         13.1650    87.5800   -23.2030 c          1 AWB       0.601900
     31 C22         20.2600    85.1820   -31.1560 c3         1 AWB      -0.106100
     32 C23         23.7040    85.6570   -32.0400 c          1 AWB       0.594100
     33 C24         24.7240    84.5540   -32.1590 c3         1 AWB      -0.132400
     34 C25         24.3780    83.4680   -33.2020 c3         1 AWB      -0.050700
     35 C26         23.0440    82.7880   -32.8920 c3         1 AWB      -0.093100
     36 C27         24.4180    83.9830   -34.6410 c3         1 AWB      -0.093100
     37 H           26.8230    84.2830   -25.3380 hc         1 AWB       0.032033
     38 HA          25.2520    85.0740   -25.1730 hc         1 AWB       0.032033
     39 HB          25.6030    84.1000   -26.6020 hc         1 AWB       0.032033
     40 HN          17.7050    88.5080   -26.4090 hn         1 AWB       0.347500
     41 H1          27.0300    86.7180   -25.8680 hc         1 AWB       0.036200
     42 H1A         27.3740    85.7510   -27.2880 hc         1 AWB       0.036200
     43 HN1         14.1580    89.3340   -23.4190 hn         1 AWB       0.153000
     44 H2          25.0380    86.1110   -28.0930 hc         1 AWB       0.040200
     45 H2A         24.7020    87.1030   -26.6840 hc         1 AWB       0.040200
     46 H3          26.5900    88.6440   -27.3890 hc         1 AWB       0.037700
     47 H3A         26.7650    87.7020   -28.8570 hc         1 AWB       0.037700
     48 H4          24.3200    89.3330   -28.0290 hc         1 AWB       0.044700
     49 H4A         25.5040    89.7600   -29.2370 hc         1 AWB       0.044700
     50 H5          23.8910    88.9250   -30.6590 hc         1 AWB       0.058200
     51 H5A         24.7880    87.4500   -30.3570 hc         1 AWB       0.058200
     52 H6          23.0840    86.8820   -28.5450 hc         1 AWB       0.087700
     53 HO6         16.0470    88.3350   -24.2340 ho         1 AWB       0.489000
     54 H7          22.0120    87.3230   -31.3620 h1         1 AWB       0.098700
     55 H8          21.0590    85.4190   -29.1660 h1         1 AWB       0.074700
     56 H10         18.9580    89.1050   -28.9940 h1         1 AWB       0.115700
     57 H11         20.3200    90.0250   -27.3660 h1         1 AWB       0.079700
     58 H13         19.2940    89.1960   -25.2730 hc         1 AWB       0.057033
     59 H13A        19.8950    87.5540   -25.5960 hc         1 AWB       0.057033
     60 H13B        21.0230    88.8780   -25.2590 hc         1 AWB       0.057033
     61 H18         11.7950    88.5110   -25.6410 ha         1 AWB       0.126000
     62 H19         11.9750    88.4550   -28.1230 ha         1 AWB       0.131000
     63 H20         14.2200    88.4690   -29.1750 ha         1 AWB       0.151000
     64 H21         12.8080    86.7410   -23.8180 h5         1 AWB       0.026200
     65 H22         20.9030    84.3400   -31.4070 hc         1 AWB       0.055367
     66 H22A        19.3020    84.7920   -30.8130 hc         1 AWB       0.055367
     67 H22B        20.0990    85.7820   -32.0530 hc         1 AWB       0.055367
     68 H24         25.6650    85.0320   -32.4420 hc         1 AWB       0.072700
     69 H24A        24.8570    84.0920   -31.1830 hc         1 AWB       0.072700
     70 H25         25.1690    82.7200   -33.0960 hc         1 AWB       0.049700
     71 H26         22.8830    81.9410   -33.5610 hc         1 AWB       0.040200
     72 H26A        23.0110    82.4230   -31.8630 hc         1 AWB       0.040200
     73 H26B        22.2110    83.4820   -33.0330 hc         1 AWB       0.040200
     74 H27         24.2720    83.1550   -35.3380 hc         1 AWB       0.040200
     75 H27A        23.6320    84.7180   -34.8200 hc         1 AWB       0.040200
     76 H27B        25.3780    84.4530   -34.8660 hc         1 AWB       0.040200
     77 C14         16.5810    88.4760   -28.1070 c          1 AWB       0.617700
     78 O1          19.0010    86.0430   -28.0010 o          1 AWB      -0.525000
     79 O3          21.6600    89.6510   -29.4460 o          1 AWB      -0.522000
@<TRIPOS>BOND
     1     1     4 1   
     2     1    37 1   
     3     1    38 1   
     4     1    39 1   
     5     2    20 1   
     6     2    40 1   
     7     2    77 1   
     8     3    17 1   
     9     3    19 1   
    10     4     6 1   
    11     4    41 1   
    12     4    42 1   
    13     5    26 1   
    14     5    30 1   
    15     5    43 1   
    16     6     8 1   
    17     6    44 1   
    18     6    45 1   
    19     7    21 1   
    20     7    22 1   
    21     8     9 1   
    22     8    46 1   
    23     8    47 1   
    24     9    11 1   
    25     9    48 1   
    26     9    49 1   
    27    10    77 2   
    28    11    13 1   
    29    11    50 1   
    30    11    51 1   
    31    12    30 2   
    32    13    15 1   
    33    13    22 1   
    34    13    52 1   
    35    14    25 1   
    36    14    53 1   
    37    15    16 1   
    38    15    17 1   
    39    15    54 1   
    40    16    32 1   
    41    17    31 1   
    42    17    55 1   
    43    18    32 2   
    44    19    20 1   
    45    19    78 2   
    46    20    21 1   
    47    20    56 1   
    48    21    23 1   
    49    21    57 1   
    50    22    79 2   
    51    23    58 1   
    52    23    59 1   
    53    23    60 1   
    54    24    25 ar  
    55    24    29 ar  
    56    24    77 1   
    57    25    26 ar  
    58    26    27 ar  
    59    27    28 ar  
    60    27    61 1   
    61    28    29 ar  
    62    28    62 1   
    63    29    63 1   
    64    30    64 1   
    65    31    65 1   
    66    31    66 1   
    67    31    67 1   
    68    32    33 1   
    69    33    34 1   
    70    33    68 1   
    71    33    69 1   
    72    34    35 1   
    73    34    36 1   
    74    34    70 1   
    75    35    71 1   
    76    35    72 1   
    77    35    73 1   
    78    36    74 1   
    79    36    75 1   
    80    36    76 1   
@<TRIPOS>SUBSTRUCTURE
     1 AWB         1 TEMP              0 ****  ****    0 ROOT
