@<TRIPOS>MOLECULE
AWD
   33    34     1     0     0
SMALL
No Charge or Current Charge


@<TRIPOS>ATOM
      1 N1          -4.6080     0.3130    -0.1110 n3         1 AWD      -0.714600
      2 N3           0.5340     0.1710    -0.0470 ns         1 AWD      -0.163000
      3 C4          -2.8350    -1.4420     0.2790 c6         1 AWD       0.105500
      4 C5          -4.2500    -0.9150     0.6420 c6         1 AWD       0.147800
      5 C7           1.9520     0.1600    -0.1780 ca         1 AWD      -0.030000
      6 C8           2.5950     1.4010    -0.3590 ca         1 AWD      -0.111500
      7 C10          4.7570     0.2960    -0.4580 ca         1 AWD       0.149000
      8 C1          -5.9980     0.7490     0.1480 c3         1 AWD       0.152100
      9 C2          -3.6160     1.3740     0.1890 c6         1 AWD       0.147800
     10 C3          -2.1660     0.9620    -0.1890 c6         1 AWD       0.105500
     11 N2          -1.7470    -0.4130     0.2450 n          1 AWD      -0.430800
     12 O1          -0.0990    -2.0050     0.3820 o          1 AWD      -0.622100
     13 C9           3.9930     1.4710    -0.4980 ca         1 AWD      -0.129500
     14 C11          4.1320    -0.9470    -0.2820 ca         1 AWD      -0.129500
     15 C12          2.7330    -1.0190    -0.1430 ca         1 AWD      -0.111500
     16 F1           6.1000     0.3610    -0.5920 f          1 AWD      -0.180000
     17 H2           0.1280     1.0890    -0.1600 hn         1 AWD       0.147000
     18 H3          -2.5720    -2.2340     0.9930 h1         1 AWD       0.057200
     19 H4          -2.8880    -1.9110    -0.7140 h1         1 AWD       0.057200
     20 H5          -4.2800    -0.7130     1.7240 h1         1 AWD       0.040700
     21 H6          -4.9800    -1.7140     0.4460 h1         1 AWD       0.040700
     22 H7           2.0110     2.3180    -0.3910 ha         1 AWD       0.125500
     23 H8          -6.2440     1.6360    -0.4510 h1         1 AWD       0.033367
     24 H9          -6.7090    -0.0450    -0.1180 h1         1 AWD       0.033367
     25 H10         -6.1420     0.9980     1.2080 h1         1 AWD       0.033367
     26 H11         -3.8670     2.2990    -0.3500 h1         1 AWD       0.040700
     27 H12         -3.6400     1.6150     1.2630 h1         1 AWD       0.040700
     28 H13         -2.0660     1.0190    -1.2820 h1         1 AWD       0.057200
     29 H14         -1.4880     1.7150     0.2380 h1         1 AWD       0.057200
     30 H15          4.4830     2.4310    -0.6350 ha         1 AWD       0.131500
     31 H16          4.7310    -1.8540    -0.2550 ha         1 AWD       0.131500
     32 H17          2.2810    -1.9970    -0.0140 ha         1 AWD       0.125500
     33 C6          -0.3970    -0.8310     0.2010 c          1 AWD       0.662100
@<TRIPOS>BOND
     1     1     4 1   
     2     1     8 1   
     3     1     9 1   
     4     2     5 1   
     5     2    17 1   
     6     2    33 1   
     7     3     4 1   
     8     3    11 1   
     9     3    18 1   
    10     3    19 1   
    11     4    20 1   
    12     4    21 1   
    13     5     6 ar  
    14     5    15 ar  
    15     6    13 ar  
    16     6    22 1   
    17     7    13 ar  
    18     7    14 ar  
    19     7    16 1   
    20     8    23 1   
    21     8    24 1   
    22     8    25 1   
    23     9    10 1   
    24     9    26 1   
    25     9    27 1   
    26    10    11 1   
    27    10    28 1   
    28    10    29 1   
    29    11    33 1   
    30    12    33 2   
    31    13    30 1   
    32    14    15 ar  
    33    14    31 1   
    34    15    32 1   
@<TRIPOS>SUBSTRUCTURE
     1 AWD         1 TEMP              0 ****  ****    0 ROOT
