@<TRIPOS>MOLECULE
AWD
   33    34     1     0     0
SMALL
abcg2


@<TRIPOS>ATOM
      1 N1          -4.5270     0.2600     0.0220 n3         1 AWD      -0.714600
      2 N3           0.4030     0.3370    -0.3180 ns         1 AWD      -0.163000
      3 C4          -2.7710    -1.4390     0.1130 c6         1 AWD       0.105500
      4 C5          -3.9570    -0.8080     0.8190 c6         1 AWD       0.147800
      5 C7           1.7950     0.2490    -0.1950 ca         1 AWD      -0.030000
      6 C8           2.4860     1.3340     0.3400 ca         1 AWD      -0.111500
      7 C10          4.5580     0.2150    -0.0070 ca         1 AWD       0.149000
      8 C1          -5.7070     0.8200     0.6410 c3         1 AWD       0.152100
      9 C2          -3.5300     1.2740    -0.2480 c6         1 AWD       0.147800
     10 C3          -2.3410     0.6730    -0.9750 c6         1 AWD       0.105500
     11 N2          -1.7820    -0.4240    -0.2030 n          1 AWD      -0.430800
     12 O1          -0.0570    -1.7800     0.3650 o          1 AWD      -0.622100
     13 C9           3.8700     1.3270     0.4300 ca         1 AWD      -0.129500
     14 C11          3.9010    -0.8760    -0.5430 ca         1 AWD      -0.129500
     15 C12          2.5190    -0.8550    -0.6450 ca         1 AWD      -0.111500
     16 F1           5.8990     0.1910     0.0860 f          1 AWD      -0.180000
     17 H2           0.0410     1.2760    -0.2990 hn         1 AWD       0.147000
     18 H3          -2.3300    -2.2010     0.7480 h1         1 AWD       0.057200
     19 H4          -3.1100    -1.9260    -0.8090 h1         1 AWD       0.057200
     20 H5          -3.6370    -0.4490     1.8120 h1         1 AWD       0.040700
     21 H6          -4.7160    -1.5770     0.9810 h1         1 AWD       0.040700
     22 H7           1.9400     2.1990     0.6960 ha         1 AWD       0.125500
     23 H8          -6.1270     1.5990     0.0040 h1         1 AWD       0.033367
     24 H9          -6.4650     0.0460     0.7670 h1         1 AWD       0.033367
     25 H10         -5.5100     1.2630     1.6300 h1         1 AWD       0.033367
     26 H11         -3.9680     2.0520    -0.8780 h1         1 AWD       0.040700
     27 H12         -3.1770     1.7620     0.6780 h1         1 AWD       0.040700
     28 H13         -2.6630     0.2970    -1.9520 h1         1 AWD       0.057200
     29 H14         -1.6110     1.4560    -1.1630 h1         1 AWD       0.057200
     30 H15          4.3970     2.1760     0.8460 ha         1 AWD       0.131500
     31 H16          4.4590    -1.7350    -0.8930 ha         1 AWD       0.131500
     32 H17          2.0150    -1.7000    -1.0900 ha         1 AWD       0.125500
     33 C6          -0.4610    -0.6960    -0.0300 c          1 AWD       0.662100
@<TRIPOS>BOND
     1     1     4 1   
     2     1     8 1   
     3     1     9 1   
     4     2     5 1   
     5     2    17 1   
     6     2    33 1   
     7     3     4 1   
     8     3    11 1   
     9     3    18 1   
    10     3    19 1   
    11     4    20 1   
    12     4    21 1   
    13     5     6 ar  
    14     5    15 ar  
    15     6    13 ar  
    16     6    22 1   
    17     7    13 ar  
    18     7    14 ar  
    19     7    16 1   
    20     8    23 1   
    21     8    24 1   
    22     8    25 1   
    23     9    10 1   
    24     9    26 1   
    25     9    27 1   
    26    10    11 1   
    27    10    28 1   
    28    10    29 1   
    29    11    33 1   
    30    12    33 2   
    31    13    30 1   
    32    14    15 ar  
    33    14    31 1   
    34    15    32 1   
@<TRIPOS>SUBSTRUCTURE
     1 AWD         1 TEMP              0 ****  ****    0 ROOT
