@<TRIPOS>MOLECULE
AWE
   27    28     1     0     0
SMALL
bcc


@<TRIPOS>ATOM
      1 C1          -3.0160    -0.6340    -0.3120 ca         1 AWE      -0.073300
      2 C2          -2.1590    -1.5590    -0.9000 ca         1 AWE      -0.131000
      3 C3          -0.7880    -1.3680    -0.8770 ca         1 AWE      -0.111000
      4 C4          -0.2150    -0.2530    -0.2670 cp         1 AWE      -0.035000
      5 C5          -1.0880     0.6550     0.3310 ca         1 AWE       0.038400
      6 C6          -2.4620     0.4750     0.3150 ca         1 AWE      -0.101000
      7 C11          3.4270    -0.9590     0.2300 ca         1 AWE       0.132900
      8 C10          4.0460     0.1410    -0.3280 ca         1 AWE      -0.165000
      9 C9           3.2420     1.1370    -0.8680 ca         1 AWE      -0.105000
     10 C8           1.8600     1.0270    -0.8400 ca         1 AWE      -0.121000
     11 C12          2.0530    -1.0990     0.2700 ca         1 AWE      -0.157000
     12 C7           1.2550    -0.0920    -0.2690 cp         1 AWE      -0.009000
     13 CL          -0.4650     2.0420     1.1700 cl         1 AWE      -0.108400
     14 C           -4.5110    -0.8230    -0.3790 c3         1 AWE       0.197100
     15 N           -5.1860    -0.2700     0.7800 n8         1 AWE      -0.889800
     16 H1          -2.5640    -2.4410    -1.3800 ha         1 AWE       0.133000
     17 H2          -0.1420    -2.0960    -1.3510 ha         1 AWE       0.139000
     18 H3          -3.1070     1.1930     0.8020 ha         1 AWE       0.167000
     19 H4           5.1250     0.2200    -0.3440 ha         1 AWE       0.150000
     20 H5           3.7020     2.0060    -1.3190 ha         1 AWE       0.136000
     21 H6           1.2520     1.8080    -1.2760 ha         1 AWE       0.143000
     22 H7           1.6100    -1.9760     0.7240 ha         1 AWE       0.152000
     23 H8          -4.8810    -0.2990    -1.2650 h1         1 AWE       0.037700
     24 H9          -4.7180    -1.8870    -0.5530 h1         1 AWE       0.037700
     25 H10         -6.1850    -0.2920     0.6270 hn         1 AWE       0.344800
     26 H11         -5.0110    -0.8560     1.5870 hn         1 AWE       0.344800
     27 F            4.1860    -1.9320     0.7590 f          1 AWE      -0.144900
@<TRIPOS>BOND
     1     1     2 ar  
     2     1     6 ar  
     3     1    14 1   
     4     2     3 ar  
     5     2    16 1   
     6     3     4 ar  
     7     3    17 1   
     8     4     5 ar  
     9     4    12 1   
    10     5     6 ar  
    11     5    13 1   
    12     6    18 1   
    13     7     8 ar  
    14     7    11 ar  
    15     7    27 1   
    16     8     9 ar  
    17     8    19 1   
    18     9    10 ar  
    19     9    20 1   
    20    10    12 ar  
    21    10    21 1   
    22    11    12 ar  
    23    11    22 1   
    24    14    15 1   
    25    14    23 1   
    26    14    24 1   
    27    15    25 1   
    28    15    26 1   
@<TRIPOS>SUBSTRUCTURE
     1 AWE         1 TEMP              0 ****  ****    0 ROOT
