@<TRIPOS>MOLECULE
AWE
   27    28     1     0     0
SMALL
No Charge or Current Charge


@<TRIPOS>ATOM
      1 C1          -3.0700    -0.4530    -0.3440 ca         1 AWE      -0.073300
      2 C2          -2.2460    -1.5060    -0.7830 ca         1 AWE      -0.113000
      3 C3          -0.8480    -1.3710    -0.7520 ca         1 AWE      -0.093000
      4 C4          -0.2340    -0.1820    -0.2890 cp         1 AWE      -0.035000
      5 C5          -1.0780     0.8710     0.1620 ca         1 AWE       0.130000
      6 C6          -2.4760     0.7310     0.1300 ca         1 AWE      -0.083000
      7 C11          3.4410    -1.0050     0.3400 ca         1 AWE       0.168000
      8 C10          4.0910     0.0720    -0.2820 ca         1 AWE      -0.147000
      9 C9           3.3340     1.0740    -0.9120 ca         1 AWE      -0.087000
     10 C8           1.9300     0.9940    -0.9120 ca         1 AWE      -0.103000
     11 C12          2.0400    -1.0850     0.3400 ca         1 AWE      -0.139000
     12 C7           1.2560    -0.0800    -0.2780 cp         1 AWE      -0.009000
     13 Cl          -0.4220     2.3710     0.8230 cl         1 AWE      -0.200000
     14 C           -4.5870    -0.5910    -0.3780 c3         1 AWE       0.197100
     15 N           -5.1320    -0.8910     0.9590 n8         1 AWE      -1.000200
     16 H1          -2.6880    -2.4300    -1.1490 ha         1 AWE       0.115000
     17 H2          -0.2280    -2.1940    -1.1010 ha         1 AWE       0.121000
     18 H3          -3.1030     1.5460     0.4850 ha         1 AWE       0.149000
     19 H4           5.1770     0.1260    -0.2770 ha         1 AWE       0.132000
     20 H5           3.8320     1.9070    -1.4020 ha         1 AWE       0.118000
     21 H6           1.3550     1.7680    -1.4160 ha         1 AWE       0.125000
     22 H7           1.5560    -1.9260     0.8280 ha         1 AWE       0.134000
     23 H8          -5.0350     0.3440    -0.7430 h1         1 AWE       0.037700
     24 H9          -4.8740    -1.3970    -1.0680 h1         1 AWE       0.037700
     25 H10         -6.1410    -1.0610     0.8760 hn         1 AWE       0.400000
     26 H11         -4.7570    -1.7950     1.2690 hn         1 AWE       0.400000
     27 F            4.1680    -1.9710     0.9420 f          1 AWE      -0.180000
@<TRIPOS>BOND
     1     1     2 ar  
     2     1     6 ar  
     3     1    14 1   
     4     2     3 ar  
     5     2    16 1   
     6     3     4 ar  
     7     3    17 1   
     8     4     5 ar  
     9     4    12 1   
    10     5     6 ar  
    11     5    13 1   
    12     6    18 1   
    13     7     8 ar  
    14     7    11 ar  
    15     7    27 1   
    16     8     9 ar  
    17     8    19 1   
    18     9    10 ar  
    19     9    20 1   
    20    10    12 ar  
    21    10    21 1   
    22    11    12 ar  
    23    11    22 1   
    24    14    15 1   
    25    14    23 1   
    26    14    24 1   
    27    15    25 1   
    28    15    26 1   
@<TRIPOS>SUBSTRUCTURE
     1 AWE         1 TEMP              0 ****  ****    0 ROOT
