@<TRIPOS>MOLECULE
AWF
   55    58     1     0     0
SMALL
abcg2


@<TRIPOS>ATOM
      1 C13         34.3330    46.9810     8.6000 ca         1 AWF      -0.067000
      2 C14         34.4510    47.0640     9.9780 ca         1 AWF      -0.134000
      3 C6          30.0110    45.8940     8.4890 ca         1 AWF      -0.112000
      4 C16         33.0880    45.0690    10.1840 ca         1 AWF      -0.123000
      5 C20         33.2490    46.6260     4.6300 cc         1 AWF       0.200400
      6 C21         33.5780    45.2640     4.6100 cc         1 AWF       0.200400
      7 C4          28.0170    46.5060     9.6460 ca         1 AWF       0.370900
      8 C5          29.0040    46.8480     8.7330 ca         1 AWF      -0.079000
      9 C10         32.9470    44.9920     8.8000 ca         1 AWF      -0.078300
     10 C12         33.5950    45.9530     8.0190 ca         1 AWF       0.011800
     11 C1          29.9930    44.6940     9.1570 ca         1 AWF       0.026100
     12 C15         33.8270    46.0920    10.7400 ca         1 AWF       0.177000
     13 C23         29.0410    48.1560     8.0800 cc         1 AWF      -0.181000
     14 C24         28.0280    48.8990     7.5240 cd         1 AWF       0.295300
     15 C2          28.9350    44.4360    10.0680 ca         1 AWF       0.585900
     16 C26         29.7000    50.3220     7.1530 cc         1 AWF       0.429700
     17 C30         26.5910    48.5030     7.4110 c3         1 AWF      -0.119400
     18 C11         32.7830    42.5540     8.1670 c3         1 AWF      -0.085100
     19 C31         29.7090    52.8170     7.0160 c3         1 AWF      -0.109600
     20 C32         30.5800    51.4140     5.1030 c3         1 AWF      -0.109600
     21 C9          32.0730    43.8970     8.2160 c3         1 AWF       0.228600
     22 C28         30.4350    51.5300     6.6230 c3         1 AWF       0.149700
     23 N3          27.9740    45.3290    10.2850 nb         1 AWF      -0.726000
     24 N19         33.2040    47.0300     5.8970 nd         1 AWF      -0.484800
     25 N22         33.7340    44.8490     5.8650 nd         1 AWF      -0.484800
     26 N25         28.4250    50.1160     7.0090 nd         1 AWF      -0.655000
     27 N18         33.4940    45.9350     6.5990 na         1 AWF       0.312800
     28 N8          28.9220    43.2650    10.7810 nv         1 AWF      -1.049900
     29 O29         31.7320    51.4870     7.2410 oh         1 AWF      -0.671000
     30 O7          30.9070    43.6920     9.0370 os         1 AWF      -0.365100
     31 F17         33.9390    46.1490    12.0870 f          1 AWF      -0.172000
     32 S27         30.5390    49.0340     7.9450 ss         1 AWF       0.033600
     33 H13         34.8120    47.7120     7.9650 ha         1 AWF       0.142000
     34 H14         35.0170    47.8540    10.4500 ha         1 AWF       0.143000
     35 H6          30.7850    46.1200     7.7720 ha         1 AWF       0.130000
     36 H16         32.5930    44.3520    10.8250 ha         1 AWF       0.153000
     37 H20         33.0460    47.3040     3.8190 h4         1 AWF       0.055100
     38 H21         33.7070    44.5920     3.7780 h4         1 AWF       0.055100
     39 H4          27.2320    47.2100     9.8940 h4         1 AWF       0.026100
     40 H9          31.7450    44.1770     7.2160 h1         1 AWF       0.064700
     41 H301        26.1980    48.8050     6.4390 hc         1 AWF       0.050033
     42 H302        26.4680    47.4260     7.5220 hc         1 AWF       0.050033
     43 H303        25.9850    48.9910     8.1790 hc         1 AWF       0.050033
     44 H81N        28.0410    43.0170    11.2040 hn         1 AWF       0.477500
     45 H82N        29.4570    42.4970    10.4090 hn         1 AWF       0.477500
     46 H111        32.1230    41.8000     7.7380 hc         1 AWF       0.055033
     47 H112        33.6760    42.6370     7.5510 hc         1 AWF       0.055033
     48 H113        33.0730    42.2460     9.1720 hc         1 AWF       0.055033
     49 H311        30.2600    53.6760     6.6290 hc         1 AWF       0.049367
     50 H312        28.7010    52.8310     6.6010 hc         1 AWF       0.049367
     51 H313        29.6440    52.8960     8.1010 hc         1 AWF       0.049367
     52 H321        31.1380    52.2720     4.7200 hc         1 AWF       0.049367
     53 H322        31.1130    50.4990     4.8430 hc         1 AWF       0.049367
     54 H323        29.5990    51.3980     4.6270 hc         1 AWF       0.049367
     55 H29         32.2980    52.1290     6.7950 ho         1 AWF       0.450000
@<TRIPOS>BOND
     1     1     2 ar  
     2     1    10 ar  
     3     1    33 1   
     4     2    12 ar  
     5     2    34 1   
     6     3     8 ar  
     7     3    11 ar  
     8     3    35 1   
     9     4     9 ar  
    10     4    12 ar  
    11     4    36 1   
    12     5     6 1   
    13     5    24 2   
    14     5    37 1   
    15     6    25 2   
    16     6    38 1   
    17     7     8 ar  
    18     7    23 ar  
    19     7    39 1   
    20     8    13 1   
    21     9    10 ar  
    22     9    21 1   
    23    10    27 1   
    24    11    15 ar  
    25    11    30 1   
    26    12    31 1   
    27    13    14 2   
    28    13    32 1   
    29    14    17 1   
    30    14    26 1   
    31    15    23 ar  
    32    15    28 1   
    33    16    22 1   
    34    16    26 2   
    35    16    32 1   
    36    17    41 1   
    37    17    42 1   
    38    17    43 1   
    39    18    21 1   
    40    18    46 1   
    41    18    47 1   
    42    18    48 1   
    43    19    22 1   
    44    19    49 1   
    45    19    50 1   
    46    19    51 1   
    47    20    22 1   
    48    20    52 1   
    49    20    53 1   
    50    20    54 1   
    51    21    30 1   
    52    21    40 1   
    53    22    29 1   
    54    24    27 1   
    55    25    27 1   
    56    28    44 1   
    57    28    45 1   
    58    29    55 1   
@<TRIPOS>SUBSTRUCTURE
     1 AWF         1 TEMP              0 ****  ****    0 ROOT
