@<TRIPOS>MOLECULE
AWF
   55    58     1     0     0
SMALL
No Charge or Current Charge


@<TRIPOS>ATOM
      1 C13         34.5040    46.8110     8.6580 ca         1 AWF      -0.067000
      2 C14         34.7260    46.7160    10.0420 ca         1 AWF      -0.134000
      3 C6          30.0120    45.9910     8.5740 ca         1 AWF      -0.112000
      4 C16         33.2250    44.8070    10.1470 ca         1 AWF      -0.123000
      5 C20         32.8620    46.8250     4.8080 cc         1 AWF       0.200400
      6 C21         33.5820    45.6460     4.5970 cc         1 AWF       0.200400
      7 C4          28.0860    46.6550     9.8950 ca         1 AWF       0.370900
      8 C5          29.0630    46.9700     8.9200 ca         1 AWF      -0.079000
      9 C10         32.9830    44.8920     8.7570 ca         1 AWF      -0.078300
     10 C12         33.6410    45.9050     8.0060 ca         1 AWF       0.011800
     11 C1          29.9510    44.7370     9.2160 ca         1 AWF       0.026100
     12 C15         34.0870    45.7120    10.7800 ca         1 AWF       0.177000
     13 C23         29.1400    48.2880     8.2890 cc         1 AWF      -0.181000
     14 C24         28.0630    48.8810     7.6610 cd         1 AWF       0.295300
     15 C2          28.9170    44.5440    10.1710 ca         1 AWF       0.585900
     16 C26         29.6630    50.3750     7.2090 cc         1 AWF       0.429700
     17 C30         26.6610    48.3440     7.5510 c3         1 AWF      -0.119400
     18 C11         32.6540    42.5080     7.9250 c3         1 AWF      -0.085100
     19 C31         29.3440    52.7320     6.2460 c3         1 AWF      -0.109600
     20 C32         31.1660    51.2080     5.3560 c3         1 AWF      -0.109600
     21 C9          32.0120    43.8950     8.1000 c3         1 AWF       0.228600
     22 C28         30.3550    51.6130     6.6100 c3         1 AWF       0.149700
     23 N3          28.0050    45.4520    10.5120 nb         1 AWF      -0.726000
     24 N19         32.7660    47.1100     6.0840 nd         1 AWF      -0.484800
     25 N22         33.9820    45.1160     5.7290 nd         1 AWF      -0.484800
     26 N25         28.3680    50.0860     7.0480 nd         1 AWF      -0.655000
     27 N18         33.4590    46.0370     6.6270 na         1 AWF       0.312800
     28 N8          28.7190    43.4050    10.8580 nv         1 AWF      -1.049900
     29 O29         31.2840    52.1940     7.5440 oh         1 AWF      -0.671000
     30 O7          30.8520    43.7120     8.9390 os         1 AWF      -0.365100
     31 F17         34.3020    45.6180    12.1110 f          1 AWF      -0.172000
     32 S27         30.6040    49.2010     8.1020 ss         1 AWF       0.033600
     33 H13         35.0040    47.5900     8.0860 ha         1 AWF       0.142000
     34 H14         35.3920    47.4160    10.5410 ha         1 AWF       0.143000
     35 H6          30.7590    46.2150     7.8220 ha         1 AWF       0.130000
     36 H16         32.7380    44.0390    10.7440 ha         1 AWF       0.153000
     37 H20         32.4130    47.4770     4.0710 h4         1 AWF       0.055100
     38 H21         33.8230    45.1660     3.6590 h4         1 AWF       0.055100
     39 H4          27.3490    47.3970    10.2000 h4         1 AWF       0.026100
     40 H9          31.6970    44.2500     7.1100 h1         1 AWF       0.064700
     41 H301        26.1230    48.8040     6.7130 hc         1 AWF       0.050033
     42 H302        26.6630    47.2610     7.3820 hc         1 AWF       0.050033
     43 H303        26.0910    48.5470     8.4640 hc         1 AWF       0.050033
     44 H81N        27.8040    43.3040    11.2780 hn         1 AWF       0.477500
     45 H82N        29.1540    42.5670    10.4870 hn         1 AWF       0.477500
     46 H111        31.9490    41.8160     7.4480 hc         1 AWF       0.055033
     47 H112        33.5460    42.5780     7.2910 hc         1 AWF       0.055033
     48 H113        32.9520    42.0890     8.8930 hc         1 AWF       0.055033
     49 H311        29.8570    53.6180     5.8510 hc         1 AWF       0.049367
     50 H312        28.6380    52.3880     5.4810 hc         1 AWF       0.049367
     51 H313        28.7680    53.0380     7.1280 hc         1 AWF       0.049367
     52 H321        31.6640    52.0760     4.9060 hc         1 AWF       0.049367
     53 H322        31.9340    50.4670     5.6080 hc         1 AWF       0.049367
     54 H323        30.5080    50.7660     4.5980 hc         1 AWF       0.049367
     55 H29         31.6820    52.9800     7.1100 ho         1 AWF       0.450000
@<TRIPOS>BOND
     1     1     2 ar  
     2     1    10 ar  
     3     1    33 1   
     4     2    12 ar  
     5     2    34 1   
     6     3     8 ar  
     7     3    11 ar  
     8     3    35 1   
     9     4     9 ar  
    10     4    12 ar  
    11     4    36 1   
    12     5     6 1   
    13     5    24 2   
    14     5    37 1   
    15     6    25 2   
    16     6    38 1   
    17     7     8 ar  
    18     7    23 ar  
    19     7    39 1   
    20     8    13 1   
    21     9    10 ar  
    22     9    21 1   
    23    10    27 1   
    24    11    15 ar  
    25    11    30 1   
    26    12    31 1   
    27    13    14 2   
    28    13    32 1   
    29    14    17 1   
    30    14    26 1   
    31    15    23 ar  
    32    15    28 1   
    33    16    22 1   
    34    16    26 2   
    35    16    32 1   
    36    17    41 1   
    37    17    42 1   
    38    17    43 1   
    39    18    21 1   
    40    18    46 1   
    41    18    47 1   
    42    18    48 1   
    43    19    22 1   
    44    19    49 1   
    45    19    50 1   
    46    19    51 1   
    47    20    22 1   
    48    20    52 1   
    49    20    53 1   
    50    20    54 1   
    51    21    30 1   
    52    21    40 1   
    53    22    29 1   
    54    24    27 1   
    55    25    27 1   
    56    28    44 1   
    57    28    45 1   
    58    29    55 1   
@<TRIPOS>SUBSTRUCTURE
     1 AWF         1 TEMP              0 ****  ****    0 ROOT
