@<TRIPOS>MOLECULE
AWG
   29    31     1     0     0
SMALL
bcc


@<TRIPOS>ATOM
      1 N1           3.2620     2.0020     0.3590 nv         1 AWG      -0.813200
      2 N3          -1.3770     1.4310    -0.3270 na         1 AWG      -0.307300
      3 C4           2.0100    -0.0030    -0.1430 ca         1 AWG       0.148600
      4 C5           3.2390     0.6230     0.1450 ca         1 AWG       0.064600
      5 C6           4.4000    -0.1440     0.1430 ca         1 AWG      -0.160000
      6 C7          -0.4140     0.4860    -0.1280 cc         1 AWG       0.665700
      7 C8          -2.5920     0.8110    -0.1560 ca         1 AWG      -0.082200
      8 C10         -4.9020     0.3370     0.0070 ca         1 AWG      -0.125000
      9 C13         -2.2690    -0.5250     0.1420 ca         1 AWG       0.101400
     10 C1           4.3580    -1.5080    -0.1130 ca         1 AWG      -0.125000
     11 C2           3.1420    -2.1230    -0.3600 ca         1 AWG      -0.129000
     12 C3           1.9720    -1.3730    -0.3810 ca         1 AWG      -0.123000
     13 C9          -3.8970     1.2680    -0.2300 ca         1 AWG      -0.129000
     14 C11         -4.6010    -0.9960     0.3050 ca         1 AWG      -0.144000
     15 C12         -3.2880    -1.4420     0.3750 ca         1 AWG      -0.085000
     16 N4          -0.9030    -0.6960     0.1510 nd         1 AWG      -0.637100
     17 H1           2.6120     2.3150     1.0680 hn         1 AWG       0.374800
     18 H2           4.1830     2.3500     0.5830 hn         1 AWG       0.374800
     19 H4           5.3460     0.3380     0.3620 ha         1 AWG       0.127000
     20 H5          -5.9360     0.6500    -0.0420 ha         1 AWG       0.129000
     21 H6           5.2740    -2.0850    -0.1020 ha         1 AWG       0.132000
     22 H7           3.0930    -3.1880    -0.5460 ha         1 AWG       0.135000
     23 H8           1.0270    -1.8540    -0.5850 ha         1 AWG       0.168000
     24 H10         -4.1290     2.2990    -0.4630 ha         1 AWG       0.132000
     25 H11         -5.4090    -1.6930     0.4830 ha         1 AWG       0.130000
     26 H12         -3.0610    -2.4750     0.6060 ha         1 AWG       0.145000
     27 N2           0.8920     0.8320    -0.2100 nu         1 AWG      -0.722600
     28 H3          -1.2260     2.4030    -0.5450 hn         1 AWG       0.302700
     29 H9           1.0890     1.7990    -0.4230 hn         1 AWG       0.450800
@<TRIPOS>BOND
     1     1     4 1   
     2     1    17 1   
     3     1    18 1   
     4     2     6 1   
     5     2     7 1   
     6     2    28 1   
     7     3     4 ar  
     8     3    12 ar  
     9     3    27 1   
    10     4     5 ar  
    11     5    10 ar  
    12     5    19 1   
    13     6    16 2   
    14     6    27 1   
    15     7     9 ar  
    16     7    13 ar  
    17     8    13 ar  
    18     8    14 ar  
    19     8    20 1   
    20     9    15 ar  
    21     9    16 1   
    22    10    11 ar  
    23    10    21 1   
    24    11    12 ar  
    25    11    22 1   
    26    12    23 1   
    27    13    24 1   
    28    14    15 ar  
    29    14    25 1   
    30    15    26 1   
    31    27    29 1   
@<TRIPOS>SUBSTRUCTURE
     1 AWG         1 TEMP              0 ****  ****    0 ROOT
