@<TRIPOS>MOLECULE
AWG
   29    31     1     0     0
SMALL
No Charge or Current Charge


@<TRIPOS>ATOM
      1 N1           3.2690     1.9180     0.6630 nv         1 AWG      -1.062000
      2 N3          -1.4360     1.4060    -0.5480 na         1 AWG      -0.357600
      3 C4           2.0450    -0.0020    -0.3180 ca         1 AWG       0.287000
      4 C5           3.2260     0.5960     0.2320 ca         1 AWG       0.203000
      5 C6           4.3940    -0.1770     0.3630 ca         1 AWG      -0.142000
      6 C7          -0.4360     0.4840    -0.3190 cc         1 AWG       0.665700
      7 C8          -2.6050     0.7890    -0.2270 ca         1 AWG      -0.082200
      8 C10         -4.9430     0.3740     0.1270 ca         1 AWG      -0.107000
      9 C13         -2.2790    -0.4740     0.1860 ca         1 AWG       0.101400
     10 C1           4.4100    -1.5240    -0.0340 ca         1 AWG      -0.107000
     11 C2           3.2550    -2.1120    -0.5720 ca         1 AWG      -0.111000
     12 C3           2.0820    -1.3530    -0.7170 ca         1 AWG      -0.105000
     13 C9          -3.9220     1.2610    -0.2750 ca         1 AWG      -0.111000
     14 C11         -4.6230    -0.9370     0.5570 ca         1 AWG      -0.126000
     15 C12         -3.2780    -1.3720     0.5900 ca         1 AWG      -0.067000
     16 N4          -0.9020    -0.6820     0.1360 nd         1 AWG      -0.637100
     17 H1           2.4000     2.3750     0.9300 hn         1 AWG       0.430000
     18 H2           4.1060     2.2500     1.1400 hn         1 AWG       0.430000
     19 H4           5.2960     0.2650     0.7800 ha         1 AWG       0.109000
     20 H5          -5.9810     0.6990     0.1060 ha         1 AWG       0.111000
     21 H6           5.3190    -2.1130     0.0750 ha         1 AWG       0.114000
     22 H7           3.2710    -3.1550    -0.8840 ha         1 AWG       0.117000
     23 H8           1.2000    -1.8120    -1.1530 ha         1 AWG       0.150000
     24 H10         -4.1510     2.2710    -0.6080 ha         1 AWG       0.114000
     25 H11         -5.4160    -1.6140     0.8660 ha         1 AWG       0.112000
     26 H12         -3.0220    -2.3750     0.9190 ha         1 AWG       0.127000
     27 N2           0.8770     0.7580    -0.5130 nu         1 AWG      -0.916200
     28 H3          -1.3110     2.3440    -0.8980 hn         1 AWG       0.353000
     29 H9           1.0470     1.7520    -0.6270 hn         1 AWG       0.506000
@<TRIPOS>BOND
     1     1     4 1   
     2     1    17 1   
     3     1    18 1   
     4     2     6 1   
     5     2     7 1   
     6     2    28 1   
     7     3     4 ar  
     8     3    12 ar  
     9     3    27 1   
    10     4     5 ar  
    11     5    10 ar  
    12     5    19 1   
    13     6    16 2   
    14     6    27 1   
    15     7     9 ar  
    16     7    13 ar  
    17     8    13 ar  
    18     8    14 ar  
    19     8    20 1   
    20     9    15 ar  
    21     9    16 1   
    22    10    11 ar  
    23    10    21 1   
    24    11    12 ar  
    25    11    22 1   
    26    12    23 1   
    27    13    24 1   
    28    14    15 ar  
    29    14    25 1   
    30    15    26 1   
    31    27    29 1   
@<TRIPOS>SUBSTRUCTURE
     1 AWG         1 TEMP              0 ****  ****    0 ROOT
