@<TRIPOS>MOLECULE
AWH
   43    45     1     0     0
SMALL
No Charge or Current Charge


@<TRIPOS>ATOM
      1 O5          -5.7020     1.1780    -2.5810 o          1 AWH      -0.724000
      2 C19         -5.9880     1.5870    -1.4640 c          1 AWH       0.714600
      3 O6          -6.7600     2.5170    -1.2780 o          1 AWH      -0.724000
      4 C18         -5.3590     0.9090    -0.2570 ca         1 AWH      -0.132600
      5 C17         -5.6650     1.3350     1.0580 ca         1 AWH      -0.091000
      6 C16         -5.0820     0.7030     2.1690 ca         1 AWH      -0.141000
      7 C15         -4.1860    -0.3620     1.9860 ca         1 AWH      -0.150000
      8 C20         -4.4530    -0.1660    -0.4240 ca         1 AWH      -0.068000
      9 C14         -3.8670    -0.7960     0.6890 ca         1 AWH       0.105400
     10 N2          -2.9680    -1.8600     0.5080 ne         1 AWH      -0.613100
     11 C13         -1.6690    -1.7290     0.4080 cd         1 AWH       0.521800
     12 N1          -0.7260    -2.7300     0.2540 n          1 AWH      -0.340300
     13 C1          -1.0990    -4.1600     0.1830 c3         1 AWH       0.105300
     14 S           -0.8520    -0.1470     0.4440 ss         1 AWH      -0.212800
     15 C3           0.7190    -0.8980     0.2360 cc         1 AWH      -0.151600
     16 C2           0.6080    -2.3580     0.1430 c          1 AWH       0.586200
     17 O1           1.5330    -3.1450    -0.0110 o          1 AWH      -0.514000
     18 C4           1.9330    -0.2490     0.1560 cf         1 AWH      -0.003200
     19 C5           2.4060     1.1670     0.2440 ca         1 AWH      -0.140800
     20 C10          3.7840     1.4640     0.0570 ca         1 AWH       0.202100
     21 O2           4.6620     0.4260    -0.2080 os         1 AWH      -0.293100
     22 C11          6.0810     0.6300    -0.4140 c3         1 AWH       0.004600
     23 C12          6.8530    -0.6930    -0.6950 c          1 AWH       0.727000
     24 O4           8.0610    -0.6140    -0.8820 o          1 AWH      -0.710500
     25 O3           6.2430    -1.7550    -0.7200 o          1 AWH      -0.710500
     26 C9           4.2420     2.7990     0.1390 ca         1 AWH      -0.230000
     27 C8           3.3480     3.8430     0.4060 ca         1 AWH      -0.060000
     28 C7           1.9910     3.5600     0.5940 ca         1 AWH      -0.189000
     29 C6           1.5230     2.2390     0.5150 ca         1 AWH      -0.045000
     30 H17         -6.3570     2.1580     1.2220 ha         1 AWH       0.123000
     31 H20         -4.1970    -0.5160    -1.4200 ha         1 AWH       0.139000
     32 H16         -5.3260     1.0390     3.1740 ha         1 AWH       0.083000
     33 H15         -3.7370    -0.8470     2.8490 ha         1 AWH       0.094000
     34 H11C        -1.1200    -4.4810    -0.8660 h1         1 AWH       0.045700
     35 H12C        -0.3680    -4.7680     0.7310 h1         1 AWH       0.045700
     36 H13C        -2.0880    -4.3260     0.6280 h1         1 AWH       0.045700
     37 H4C          2.7500    -0.9590     0.0120 ha         1 AWH       0.235000
     38 HA           0.4670     2.0740     0.6760 ha         1 AWH       0.117000
     39 H9           5.2900     3.0450    -0.0020 ha         1 AWH       0.119000
     40 H111         6.2470     1.2980    -1.2690 h1         1 AWH       0.017700
     41 H112         6.5290     1.0920     0.4750 h1         1 AWH       0.017700
     42 H8           3.7060     4.8690     0.4680 ha         1 AWH       0.091000
     43 H7           1.2940     4.3680     0.8040 ha         1 AWH       0.102000
@<TRIPOS>BOND
     1     1     2 1   
     2     2     3 1   
     3     2     4 1   
     4     4     5 ar  
     5     4     8 ar  
     6     5     6 ar  
     7     5    30 1   
     8     6     7 ar  
     9     6    32 1   
    10     7     9 ar  
    11     7    33 1   
    12     8     9 ar  
    13     8    31 1   
    14     9    10 1   
    15    10    11 2   
    16    11    12 1   
    17    11    14 1   
    18    12    13 1   
    19    12    16 1   
    20    13    34 1   
    21    13    35 1   
    22    13    36 1   
    23    14    15 1   
    24    15    16 1   
    25    15    18 2   
    26    16    17 2   
    27    18    19 1   
    28    18    37 1   
    29    19    20 ar  
    30    19    29 ar  
    31    20    21 1   
    32    20    26 ar  
    33    21    22 1   
    34    22    23 1   
    35    22    40 1   
    36    22    41 1   
    37    23    24 1   
    38    23    25 1   
    39    26    27 ar  
    40    26    39 1   
    41    27    28 ar  
    42    27    42 1   
    43    28    29 ar  
    44    28    43 1   
    45    29    38 1   
@<TRIPOS>SUBSTRUCTURE
     1 AWH         1 TEMP              0 ****  ****    0 ROOT
