@<TRIPOS>MOLECULE
AWH
   43    45     1     0     0
SMALL
bcc


@<TRIPOS>ATOM
      1 O5          -5.8160     0.4990    -2.9200 o          1 AWH      -0.829300
      2 C19         -6.0090     1.1850    -1.8990 c          1 AWH       0.925200
      3 O6          -6.7700     2.1660    -1.7900 o          1 AWH      -0.829300
      4 C18         -5.2320     0.7850    -0.6480 ca         1 AWH      -0.132600
      5 C17         -5.3780     1.4950     0.5420 ca         1 AWH      -0.109000
      6 C16         -4.6720     1.1190     1.6740 ca         1 AWH      -0.159000
      7 C15         -3.8010     0.0390     1.6370 ca         1 AWH      -0.168000
      8 C20         -4.3640    -0.3010    -0.6800 ca         1 AWH      -0.086000
      9 C14         -3.6380    -0.6730     0.4480 ca         1 AWH       0.105400
     10 N2          -2.7940    -1.7900     0.3820 ne         1 AWH      -0.613100
     11 C13         -1.5480    -1.6420     0.5030 cd         1 AWH       0.521800
     12 N1          -0.6700    -2.6990     0.4790 n          1 AWH      -0.407300
     13 C1          -1.1680    -4.0520     0.3340 c3         1 AWH       0.105300
     14 S           -0.6890    -0.1060     0.7010 ss         1 AWH      -0.212800
     15 C3           0.8570    -0.9330     0.6710 cc         1 AWH      -0.151600
     16 C2           0.6650    -2.3970     0.5630 c          1 AWH       0.728700
     17 O1           1.5530    -3.2200     0.5410 o          1 AWH      -0.589500
     18 C4           2.0840    -0.3930     0.6710 cf         1 AWH       0.046800
     19 C5           2.4520     1.0100     0.7660 ca         1 AWH      -0.140800
     20 C10          3.6720     1.4270     0.1880 ca         1 AWH       0.202100
     21 O2           4.3740     0.4780    -0.4350 os         1 AWH      -0.269900
     22 C11          5.6650     0.7660    -0.9410 c3         1 AWH      -0.018600
     23 C12          6.3330    -0.5220    -1.4510 c          1 AWH       0.937600
     24 O4           7.4490    -0.3290    -1.9720 o          1 AWH      -0.815800
     25 O3           5.7330    -1.5950    -1.2980 o          1 AWH      -0.815800
     26 C9           4.0640     2.7610     0.2780 ca         1 AWH      -0.248000
     27 C8           3.2590     3.6780     0.9410 ca         1 AWH      -0.078000
     28 C7           2.0670     3.2820     1.5290 ca         1 AWH      -0.207000
     29 C6           1.6750     1.9570     1.4370 ca         1 AWH      -0.063000
     30 H17         -6.0530     2.3390     0.5810 ha         1 AWH       0.141000
     31 H20         -4.2470    -0.8660    -1.5960 ha         1 AWH       0.157000
     32 H16         -4.7970     1.6680     2.5990 ha         1 AWH       0.101000
     33 H15         -3.2620    -0.2610     2.5280 ha         1 AWH       0.112000
     34 H11C        -1.6230    -4.1880    -0.6450 h1         1 AWH       0.045700
     35 H12C        -0.3390    -4.7430     0.4420 h1         1 AWH       0.045700
     36 H13C        -1.9110    -4.2600     1.1010 h1         1 AWH       0.045700
     37 H4C          2.8990    -1.1010     0.5610 ha         1 AWH       0.185000
     38 HA           0.7670     1.6510     1.9410 ha         1 AWH       0.135000
     39 H9           4.9870     3.1000    -0.1690 ha         1 AWH       0.137000
     40 H111         5.6030     1.4940    -1.7580 h1         1 AWH       0.017700
     41 H112         6.2950     1.2080    -0.1600 h1         1 AWH       0.017700
     42 H8           3.5760     4.7110     0.9990 ha         1 AWH       0.109000
     43 H7           1.4520     3.9930     2.0620 ha         1 AWH       0.120000
@<TRIPOS>BOND
     1     1     2 1   
     2     2     3 1   
     3     2     4 1   
     4     4     5 ar  
     5     4     8 ar  
     6     5     6 ar  
     7     5    30 1   
     8     6     7 ar  
     9     6    32 1   
    10     7     9 ar  
    11     7    33 1   
    12     8     9 ar  
    13     8    31 1   
    14     9    10 1   
    15    10    11 2   
    16    11    12 1   
    17    11    14 1   
    18    12    13 1   
    19    12    16 1   
    20    13    34 1   
    21    13    35 1   
    22    13    36 1   
    23    14    15 1   
    24    15    16 1   
    25    15    18 2   
    26    16    17 2   
    27    18    19 1   
    28    18    37 1   
    29    19    20 ar  
    30    19    29 ar  
    31    20    21 1   
    32    20    26 ar  
    33    21    22 1   
    34    22    23 1   
    35    22    40 1   
    36    22    41 1   
    37    23    24 1   
    38    23    25 1   
    39    26    27 ar  
    40    26    39 1   
    41    27    28 ar  
    42    27    42 1   
    43    28    29 ar  
    44    28    43 1   
    45    29    38 1   
@<TRIPOS>SUBSTRUCTURE
     1 AWH         1 TEMP              0 ****  ****    0 ROOT
