@<TRIPOS>MOLECULE
AWI
   76    81     1     0     0
SMALL
bcc


@<TRIPOS>ATOM
      1 C1         -26.4340     8.4170    28.1100 ca         1 AWI       0.029100
      2 C6         -25.7320     7.2260    28.1490 ca         1 AWI       0.035700
      3 C5         -25.2780     6.6530    26.9320 ca         1 AWI      -0.257600
      4 C4         -25.5960     7.3010    25.7410 ca         1 AWI       0.195100
      5 O15        -23.8790     3.4200    21.6710 os         1 AWI      -0.320900
      6 C25        -25.5500     6.5510    29.4910 c3         1 AWI       0.004100
      7 C26        -24.3010     6.9990    30.1950 c2         1 AWI      -0.154200
      8 C35        -24.5310     1.8920    30.9380 ca         1 AWI       0.397700
      9 C38        -22.7670     1.9770    28.8880 ca         1 AWI      -0.228800
     10 C41        -30.0170    11.2100    24.5180 cx         1 AWI      -0.118400
     11 C40        -30.3550    10.4550    25.7650 cx         1 AWI      -0.118400
     12 C39        -29.0030    10.2960    25.1390 cx         1 AWI      -0.171700
     13 C3         -26.2960     8.4980    25.6960 ca         1 AWI      -0.261000
     14 C2         -26.7210     9.0630    26.8830 ca         1 AWI       0.188100
     15 C16        -22.9530     2.3450    21.3870 c6         1 AWI       0.210000
     16 C17        -23.0020     1.3160    22.4800 c2         1 AWI      -0.222200
     17 C18        -23.3420     1.6480    23.7220 ce         1 AWI      -0.057200
     18 C28        -22.8630     7.8910    31.9880 c3         1 AWI      -0.054900
     19 C29        -25.3400     7.6740    32.3880 c3         1 AWI      -0.054900
     20 C34        -25.0140     2.0620    29.6510 ca         1 AWI      -0.228800
     21 C33        -24.1160     2.1110    28.5910 ca         1 AWI      -0.042300
     22 C32        -24.6360     2.2480    27.1920 c3         1 AWI       0.199700
     23 C30        -27.8140    10.9100    25.8140 c3         1 AWI       0.167400
     24 O7         -25.2330     6.8110    24.5350 os         1 AWI      -0.219200
     25 C8         -24.7370     5.5680    24.4120 ca         1 AWI       0.222100
     26 C9         -24.4020     4.8070    25.5340 ca         1 AWI      -0.318600
     27 C10        -24.4580     5.4370    26.8590 c          1 AWI       0.612300
     28 C11        -24.5420     5.1230    23.1120 ca         1 AWI      -0.230000
     29 C12        -24.0240     3.8560    22.9230 ca         1 AWI       0.236100
     30 C13        -23.7430     3.0140    24.0160 ca         1 AWI      -0.208800
     31 C14        -23.9220     3.5000    25.3020 ca         1 AWI       0.257100
     32 O19        -23.8460     4.9890    27.8150 o          1 AWI      -0.525100
     33 O22        -26.9220     8.9690    29.2510 os         1 AWI      -0.321900
     34 C23        -26.1540    10.0430    29.7820 c3         1 AWI       0.124700
     35 O24        -27.4150    10.1970    26.9840 os         1 AWI      -0.300900
     36 C27        -24.1980     7.4820    31.4360 c2         1 AWI      -0.121400
     37 O31        -23.6050     2.6650    26.3130 os         1 AWI      -0.330900
     38 N36        -23.2400     1.7700    31.2280 nb         1 AWI      -0.664000
     39 C37        -22.3870     1.8130    30.2120 ca         1 AWI       0.397700
     40 H1         -21.2360     3.3930    22.2150 hc         1 AWI       0.050033
     41 H2         -20.8340     2.1330    21.0510 hc         1 AWI       0.050033
     42 H3         -21.4890     3.6690    20.4810 hc         1 AWI       0.050033
     43 H4         -24.4160     1.3480    20.1350 hc         1 AWI       0.050033
     44 H5         -23.3960     2.5160    19.2750 hc         1 AWI       0.050033
     45 H6         -22.7360     0.9560    19.7640 hc         1 AWI       0.050033
     46 H7         -26.4300     6.7520    30.0990 hc         1 AWI       0.068700
     47 H8         -25.5170     5.4710    29.3520 hc         1 AWI       0.068700
     48 H9         -23.3900     6.9060    29.6130 ha         1 AWI       0.132000
     49 H11        -22.0090     2.0070    28.1170 ha         1 AWI       0.144500
     50 H12        -30.4710    10.9010    23.5860 hc         1 AWI       0.075200
     51 H13        -29.8540    12.2780    24.5990 hc         1 AWI       0.075200
     52 H14        -30.4210    11.0110    26.6920 hc         1 AWI       0.075200
     53 H15        -31.0470     9.6260    25.6920 hc         1 AWI       0.075200
     54 H16        -28.8240     9.3620    24.6160 hc         1 AWI       0.088700
     55 H17        -26.5000     8.9440    24.7320 ha         1 AWI       0.159000
     56 H18        -22.7090     0.3040    22.2250 ha         1 AWI       0.141000
     57 H19        -23.3440     0.9110    24.5140 ha         1 AWI       0.147000
     58 H20        -22.6240     7.3300    32.8960 hc         1 AWI       0.038033
     59 H21        -22.0560     7.7350    31.2730 hc         1 AWI       0.038033
     60 H22        -22.8680     8.9470    32.2700 hc         1 AWI       0.038033
     61 H23        -25.3970     8.7170    32.7070 hc         1 AWI       0.038033
     62 H24        -26.3080     7.3990    31.9750 hc         1 AWI       0.038033
     63 H25        -25.1840     7.0830    33.2940 hc         1 AWI       0.038033
     64 H26        -26.0800     2.1640    29.4860 ha         1 AWI       0.144500
     65 H27        -25.4910     2.9290    27.1760 h1         1 AWI       0.049200
     66 H28        -25.0070     1.2740    26.8520 h1         1 AWI       0.049200
     67 H29        -26.9700    11.0200    25.1260 h1         1 AWI       0.059200
     68 H30        -28.0650    11.9080    26.1760 h1         1 AWI       0.059200
     69 H31        -24.7930     5.7550    22.2700 ha         1 AWI       0.168000
     70 H32        -26.6390    10.3500    30.7070 h1         1 AWI       0.038033
     71 H33        -25.1340     9.7250    30.0090 h1         1 AWI       0.038033
     72 H34        -26.1190    10.8980    29.1050 h1         1 AWI       0.038033
     73 H35        -21.3350     1.7130    30.4590 h4         1 AWI       0.016100
     74 C20        -21.5460     2.9260    21.2790 c3         1 AWI      -0.098100
     75 C21        -23.4090     1.7600    20.0610 c3         1 AWI      -0.098100
     76 H10        -25.2210     1.8600    31.7740 h4         1 AWI       0.016100
@<TRIPOS>BOND
     1     1     2 ar  
     2     1    14 ar  
     3     1    33 1   
     4     2     3 ar  
     5     2     6 1   
     6     3     4 ar  
     7     3    27 1   
     8     4    13 ar  
     9     4    24 1   
    10     5    15 1   
    11     5    29 1   
    12     6     7 1   
    13     6    46 1   
    14     6    47 1   
    15     7    36 2   
    16     7    48 1   
    17     8    20 ar  
    18     8    38 ar  
    19     8    76 1   
    20     9    21 ar  
    21     9    39 ar  
    22     9    49 1   
    23    10    11 1   
    24    10    12 1   
    25    10    50 1   
    26    10    51 1   
    27    11    12 1   
    28    11    52 1   
    29    11    53 1   
    30    12    23 1   
    31    12    54 1   
    32    13    14 ar  
    33    13    55 1   
    34    14    35 1   
    35    15    16 1   
    36    15    74 1   
    37    15    75 1   
    38    16    17 2   
    39    16    56 1   
    40    17    30 1   
    41    17    57 1   
    42    18    36 1   
    43    18    58 1   
    44    18    59 1   
    45    18    60 1   
    46    19    36 1   
    47    19    61 1   
    48    19    62 1   
    49    19    63 1   
    50    20    21 ar  
    51    20    64 1   
    52    21    22 1   
    53    22    37 1   
    54    22    65 1   
    55    22    66 1   
    56    23    35 1   
    57    23    67 1   
    58    23    68 1   
    59    24    25 1   
    60    25    26 ar  
    61    25    28 ar  
    62    26    27 1   
    63    26    31 ar  
    64    27    32 2   
    65    28    29 ar  
    66    28    69 1   
    67    29    30 ar  
    68    30    31 ar  
    69    31    37 1   
    70    33    34 1   
    71    34    70 1   
    72    34    71 1   
    73    34    72 1   
    74    38    39 ar  
    75    39    73 1   
    76    40    74 1   
    77    41    74 1   
    78    42    74 1   
    79    43    75 1   
    80    44    75 1   
    81    45    75 1   
@<TRIPOS>SUBSTRUCTURE
     1 AWI         1 TEMP              0 ****  ****    0 ROOT
