@<TRIPOS>MOLECULE
AWI
   76    81     1     0     0
SMALL
No Charge or Current Charge


@<TRIPOS>ATOM
      1 C1         -26.4650     8.6940    28.1130 ca         1 AWI       0.029100
      2 C6         -25.7190     7.4880    28.1740 ca         1 AWI       0.035700
      3 C5         -25.1590     6.9570    26.9740 ca         1 AWI      -0.257600
      4 C4         -25.4110     7.6080    25.7540 ca         1 AWI       0.195100
      5 O15        -23.7360     3.4550    21.7380 os         1 AWI      -0.344100
      6 C25        -25.5650     6.8020    29.5410 c3         1 AWI       0.004100
      7 C26        -24.3640     7.3270    30.3180 c2         1 AWI      -0.204200
      8 C35        -23.2640     1.4700    30.7260 ca         1 AWI       0.332400
      9 C38        -23.8660     0.2190    28.3540 ca         1 AWI      -0.145500
     10 C41        -30.3560    10.7590    24.4790 cx         1 AWI      -0.118400
     11 C40        -30.4720    10.1370    25.8510 cx         1 AWI      -0.118400
     12 C39        -29.1330    10.1730    25.1490 cx         1 AWI      -0.171700
     13 C3         -26.1610     8.7850    25.7000 ca         1 AWI      -0.243000
     14 C2         -26.6980     9.3390    26.8750 ca         1 AWI       0.188100
     15 C16        -22.8600     2.3300    21.4930 c6         1 AWI       0.233200
     16 C17        -22.8310     1.3680    22.6710 c2         1 AWI      -0.272200
     17 C18        -23.1370     1.7810    23.9150 ce         1 AWI      -0.107200
     18 C28        -23.0260     8.3650    32.1660 c3         1 AWI      -0.054900
     19 C29        -25.5150     8.1370    32.4620 c3         1 AWI      -0.054900
     20 C34        -23.7600     2.2390    29.6590 ca         1 AWI      -0.145500
     21 C33        -24.0720     1.6080    28.4400 ca         1 AWI      -0.042300
     22 C32        -24.6070     2.4030    27.2580 c3         1 AWI       0.222900
     23 C30        -28.0060    11.0750    25.6530 c3         1 AWI       0.190600
     24 O7         -24.9310     7.1050    24.5710 os         1 AWI      -0.219200
     25 C8         -24.4760     5.8180    24.4510 ca         1 AWI       0.222100
     26 C9         -24.1660     5.0630    25.5890 ca         1 AWI      -0.318600
     27 C10        -24.2800     5.7360    26.9180 c          1 AWI       0.612300
     28 C11        -24.3250     5.2780    23.1700 ca         1 AWI      -0.212000
     29 C12        -23.8550     3.9730    23.0130 ca         1 AWI       0.236100
     30 C13        -23.5680     3.1840    24.1410 ca         1 AWI      -0.208800
     31 C14        -23.7330     3.7270    25.4310 ca         1 AWI       0.257100
     32 O19        -23.6030     5.3760    27.8700 o          1 AWI      -0.525100
     33 O22        -26.9900     9.2210    29.2790 os         1 AWI      -0.345100
     34 C23        -26.4790    10.4610    29.7980 c3         1 AWI       0.147900
     35 O24        -27.4620    10.4950    26.8540 os         1 AWI      -0.324100
     36 C27        -24.3260     7.8890    31.5430 c2         1 AWI      -0.121400
     37 O31        -23.4930     2.9220    26.5150 os         1 AWI      -0.354100
     38 N36        -23.0680     0.1330    30.6430 nb         1 AWI      -0.664000
     39 C37        -23.3660    -0.4740    29.4700 ca         1 AWI       0.332400
     40 H1         -21.0570     3.4120    22.1350 hc         1 AWI       0.050033
     41 H2         -20.7310     2.1000    20.9940 hc         1 AWI       0.050033
     42 H3         -21.4370     3.6180    20.4170 hc         1 AWI       0.050033
     43 H4         -24.3880     1.2190    20.3760 hc         1 AWI       0.050033
     44 H5         -23.4300     2.3160    19.3690 hc         1 AWI       0.050033
     45 H6         -22.7300     0.7890    19.9290 hc         1 AWI       0.050033
     46 H7         -26.4930     6.9120    30.1070 hc         1 AWI       0.068700
     47 H8         -25.4860     5.7160    29.4230 hc         1 AWI       0.068700
     48 H9         -23.4310     7.2120    29.7640 ha         1 AWI       0.182000
     49 H11        -24.0850    -0.3220    27.4380 ha         1 AWI       0.126500
     50 H12        -30.7830    10.2160    23.6380 hc         1 AWI       0.075200
     51 H13        -30.4350    11.8420    24.4070 hc         1 AWI       0.075200
     52 H14        -30.6240    10.8010    26.6980 hc         1 AWI       0.075200
     53 H15        -30.9750     9.1760    25.9320 hc         1 AWI       0.075200
     54 H16        -28.7700     9.2310    24.7450 hc         1 AWI       0.088700
     55 H17        -26.3140     9.2490    24.7320 ha         1 AWI       0.141000
     56 H18        -22.5140     0.3430    22.4740 ha         1 AWI       0.191000
     57 H19        -23.0850     1.1100    24.7760 ha         1 AWI       0.197000
     58 H20        -22.8260     7.8430    33.1100 hc         1 AWI       0.038033
     59 H21        -22.1680     8.1880    31.5070 hc         1 AWI       0.038033
     60 H22        -23.0590     9.4400    32.3780 hc         1 AWI       0.038033
     61 H23        -25.6080     9.2040    32.6990 hc         1 AWI       0.038033
     62 H24        -26.4720     7.8220    32.0380 hc         1 AWI       0.038033
     63 H25        -25.3920     7.6000    33.4100 hc         1 AWI       0.038033
     64 H26        -23.8930     3.3100    29.7830 ha         1 AWI       0.126500
     65 H27        -25.2490     3.2140    27.6250 h1         1 AWI       0.049200
     66 H28        -25.2220     1.7540    26.6220 h1         1 AWI       0.049200
     67 H29        -27.2370    11.2140    24.8820 h1         1 AWI       0.059200
     68 H30        -28.4170    12.0670    25.8810 h1         1 AWI       0.059200
     69 H31        -24.5680     5.8750    22.2960 ha         1 AWI       0.150000
     70 H32        -26.9760    10.7100    30.7430 h1         1 AWI       0.038033
     71 H33        -25.4010    10.3810    29.9900 h1         1 AWI       0.038033
     72 H34        -26.6450    11.2880    29.0980 h1         1 AWI       0.038033
     73 H35        -23.1990    -1.5490    29.4250 h4         1 AWI       0.016100
     74 C20        -21.4390     2.8990    21.2440 c3         1 AWI      -0.098100
     75 C21        -23.3810     1.6230    20.2170 c3         1 AWI      -0.098100
     76 H10        -23.0150     1.9390    31.6770 h4         1 AWI       0.016100
@<TRIPOS>BOND
     1     1     2 ar  
     2     1    14 ar  
     3     1    33 1   
     4     2     3 ar  
     5     2     6 1   
     6     3     4 ar  
     7     3    27 1   
     8     4    13 ar  
     9     4    24 1   
    10     5    15 1   
    11     5    29 1   
    12     6     7 1   
    13     6    46 1   
    14     6    47 1   
    15     7    36 2   
    16     7    48 1   
    17     8    20 ar  
    18     8    38 ar  
    19     8    76 1   
    20     9    21 ar  
    21     9    39 ar  
    22     9    49 1   
    23    10    11 1   
    24    10    12 1   
    25    10    50 1   
    26    10    51 1   
    27    11    12 1   
    28    11    52 1   
    29    11    53 1   
    30    12    23 1   
    31    12    54 1   
    32    13    14 ar  
    33    13    55 1   
    34    14    35 1   
    35    15    16 1   
    36    15    74 1   
    37    15    75 1   
    38    16    17 2   
    39    16    56 1   
    40    17    30 1   
    41    17    57 1   
    42    18    36 1   
    43    18    58 1   
    44    18    59 1   
    45    18    60 1   
    46    19    36 1   
    47    19    61 1   
    48    19    62 1   
    49    19    63 1   
    50    20    21 ar  
    51    20    64 1   
    52    21    22 1   
    53    22    37 1   
    54    22    65 1   
    55    22    66 1   
    56    23    35 1   
    57    23    67 1   
    58    23    68 1   
    59    24    25 1   
    60    25    26 ar  
    61    25    28 ar  
    62    26    27 1   
    63    26    31 ar  
    64    27    32 2   
    65    28    29 ar  
    66    28    69 1   
    67    29    30 ar  
    68    30    31 ar  
    69    31    37 1   
    70    33    34 1   
    71    34    70 1   
    72    34    71 1   
    73    34    72 1   
    74    38    39 ar  
    75    39    73 1   
    76    40    74 1   
    77    41    74 1   
    78    42    74 1   
    79    43    75 1   
    80    44    75 1   
    81    45    75 1   
@<TRIPOS>SUBSTRUCTURE
     1 AWI         1 TEMP              0 ****  ****    0 ROOT
