@<TRIPOS>MOLECULE
AWK
   55    58     1     0     0
SMALL
abcg2


@<TRIPOS>ATOM
      1 C1          -6.1890    -1.5190    -1.3070 c3         1 AWK      -0.035100
      2 N1           5.7120     0.6700     0.8780 na         1 AWK      -0.315600
      3 C2          -6.4580    -0.6000    -0.1460 ca         1 AWK      -0.048300
      4 N2           5.1490    -0.7750    -0.7040 nc         1 AWK      -0.580100
      5 C3          -5.4470     0.1630     0.4500 cp         1 AWK      -0.039000
      6 C4          -5.7360     0.9520     1.5610 ca         1 AWK      -0.092000
      7 C5          -7.0180     1.0000     2.0890 ca         1 AWK      -0.116000
      8 C6          -8.0250     0.2480     1.5030 ca         1 AWK      -0.102000
      9 C24         -3.6380     0.8210    -1.1840 ca         1 AWK       0.126000
     10 C8          -4.0510     0.1290    -0.0510 cp         1 AWK      -0.023000
     11 C7          -7.7400    -0.5420     0.3990 ca         1 AWK      -0.113000
     12 C           -5.7200    -2.8980    -0.8500 c3         1 AWK      -0.086100
     13 C23         -2.3220     0.7930    -1.6240 ca         1 AWK      -0.105000
     14 C11         -1.3690     0.0620    -0.9300 ca         1 AWK      -0.080300
     15 C10         -1.7600    -0.6260     0.2160 ca         1 AWK      -0.086000
     16 C9          -3.0770    -0.5910     0.6410 ca         1 AWK      -0.100000
     17 C12          0.0570     0.0080    -1.4110 c3         1 AWK       0.208100
     18 N            0.9830     0.2840    -0.3320 n7         1 AWK      -0.871400
     19 C13          2.3680     0.0860    -0.7090 c3         1 AWK       0.167800
     20 C14          3.2740     0.3480     0.4850 c3         1 AWK      -0.093700
     21 C15          4.7060     0.0690     0.1900 cd         1 AWK       0.414800
     22 C22          6.5190    -0.7340    -0.6010 ca         1 AWK       0.074400
     23 C16          6.8970     0.1760     0.3980 ca         1 AWK      -0.078200
     24 C21          7.4990    -1.4290    -1.3110 ca         1 AWK      -0.052000
     25 C20          8.8200    -1.1820    -0.9860 ca         1 AWK      -0.132000
     26 C19          9.1710    -0.2680     0.0190 ca         1 AWK      -0.093000
     27 C17          8.2220     0.4410     0.7420 ca         1 AWK      -0.081300
     28 C18          8.5750     1.4210     1.8170 c3         1 AWK      -0.041800
     29 H1          -7.1040    -1.6260    -1.8930 hc         1 AWK       0.049700
     30 H2          -5.4460    -1.0850    -1.9780 hc         1 AWK       0.049700
     31 H3           5.5970     1.3570     1.6070 hn         1 AWK       0.354000
     32 H5          -4.9470     1.5410     2.0120 ha         1 AWK       0.115000
     33 H6          -7.2250     1.6200     2.9520 ha         1 AWK       0.113000
     34 H7          -9.0310     0.2760     1.9020 ha         1 AWK       0.112000
     35 H8          -8.5280    -1.1330    -0.0540 ha         1 AWK       0.112000
     36 H9          -4.7900    -2.8340    -0.2830 hc         1 AWK       0.034367
     37 H10         -6.4660    -3.3760    -0.2140 hc         1 AWK       0.034367
     38 H11         -5.5420    -3.5500    -1.7060 hc         1 AWK       0.034367
     39 H12         -2.0390     1.3490    -2.5090 ha         1 AWK       0.126000
     40 H13         -1.0290    -1.1930     0.7790 ha         1 AWK       0.132000
     41 H14         -3.3680    -1.1360     1.5300 ha         1 AWK       0.122000
     42 H15          0.2690    -1.0000    -1.7820 h1         1 AWK       0.042200
     43 H16          0.1760     0.6810    -2.2730 h1         1 AWK       0.042200
     44 H17          0.8500     1.2400    -0.0220 hn         1 AWK       0.408000
     45 H19          2.4900    -0.9490    -1.0360 h1         1 AWK       0.050200
     46 H20          2.6820     0.7170    -1.5540 h1         1 AWK       0.050200
     47 H21          3.1680     1.3840     0.8190 hc         1 AWK       0.059200
     48 H22          2.9510    -0.2780     1.3240 hc         1 AWK       0.059200
     49 H23          7.2320    -2.1340    -2.0870 ha         1 AWK       0.128000
     50 H24          9.6060    -1.7050    -1.5150 ha         1 AWK       0.114000
     51 H25         10.2200    -0.1080     0.2400 ha         1 AWK       0.111000
     52 H26          8.1500     1.1290     2.7790 hc         1 AWK       0.040700
     53 H27          9.6550     1.4960     1.9410 hc         1 AWK       0.040700
     54 H28          8.1970     2.4190     1.5880 hc         1 AWK       0.040700
     55 CL          -4.7850     1.7680    -2.0790 cl         1 AWK      -0.201000
@<TRIPOS>BOND
     1     1     3 1   
     2     1    12 1   
     3     1    29 1   
     4     1    30 1   
     5     2    21 1   
     6     2    23 1   
     7     2    31 1   
     8     3     5 ar  
     9     3    11 ar  
    10     4    21 2   
    11     4    22 1   
    12     5     6 ar  
    13     5    10 1   
    14     6     7 ar  
    15     6    32 1   
    16     7     8 ar  
    17     7    33 1   
    18     8    11 ar  
    19     8    34 1   
    20     9    10 ar  
    21     9    13 ar  
    22     9    55 1   
    23    10    16 ar  
    24    11    35 1   
    25    12    36 1   
    26    12    37 1   
    27    12    38 1   
    28    13    14 ar  
    29    13    39 1   
    30    14    15 ar  
    31    14    17 1   
    32    15    16 ar  
    33    15    40 1   
    34    16    41 1   
    35    17    18 1   
    36    17    42 1   
    37    17    43 1   
    38    18    19 1   
    39    18    44 1   
    40    19    20 1   
    41    19    45 1   
    42    19    46 1   
    43    20    21 1   
    44    20    47 1   
    45    20    48 1   
    46    22    23 ar  
    47    22    24 ar  
    48    23    27 ar  
    49    24    25 ar  
    50    24    49 1   
    51    25    26 ar  
    52    25    50 1   
    53    26    27 ar  
    54    26    51 1   
    55    27    28 1   
    56    28    52 1   
    57    28    53 1   
    58    28    54 1   
@<TRIPOS>SUBSTRUCTURE
     1 AWK         1 TEMP              0 ****  ****    0 ROOT
