@<TRIPOS>MOLECULE
AWK
   55    58     1     0     0
SMALL
No Charge or Current Charge


@<TRIPOS>ATOM
      1 C1          -6.2770    -0.3820    -1.7230 c3         1 AWK      -0.035100
      2 N1           5.6080     0.8200     0.4130 na         1 AWK      -0.315600
      3 C2          -6.4890    -0.1580    -0.2260 ca         1 AWK      -0.048300
      4 N2           5.5260    -1.4630     0.7470 nc         1 AWK      -0.580100
      5 C3          -5.4000    -0.0650     0.6860 cp         1 AWK      -0.039000
      6 C4          -5.6750     0.1160     2.0620 ca         1 AWK      -0.092000
      7 C5          -6.9950     0.2120     2.5300 ca         1 AWK      -0.116000
      8 C6          -8.0630     0.1240     1.6260 ca         1 AWK      -0.102000
      9 C24         -3.3030     0.9380    -0.3400 ca         1 AWK       0.126000
     10 C8          -3.9830    -0.1660     0.2350 cp         1 AWK      -0.023000
     11 C7          -7.8110    -0.0630     0.2570 ca         1 AWK      -0.113000
     12 C           -6.1350    -1.8740    -2.0760 c3         1 AWK      -0.086100
     13 C23         -1.9660     0.8160    -0.7570 ca         1 AWK      -0.105000
     14 C11         -1.2780    -0.4030    -0.6060 ca         1 AWK      -0.080300
     15 C10         -1.9410    -1.5010    -0.0260 ca         1 AWK      -0.086000
     16 C9          -3.2770    -1.3820     0.3920 ca         1 AWK      -0.100000
     17 C12          0.1690    -0.5340    -1.0600 c3         1 AWK       0.208100
     18 N            1.0840    -0.3450     0.0800 n7         1 AWK      -0.871400
     19 C13          2.5210    -0.4230    -0.2490 c3         1 AWK       0.167800
     20 C14          3.3650    -0.2450     1.0240 c3         1 AWK      -0.093700
     21 C15          4.8380    -0.3050     0.7310 cd         1 AWK       0.414800
     22 C22          6.8060    -1.0470     0.4200 ca         1 AWK       0.074400
     23 C16          6.8620     0.3050     0.2200 ca         1 AWK      -0.078200
     24 C21          7.9570    -1.8370     0.2870 ca         1 AWK      -0.052000
     25 C20          9.1710    -1.2060    -0.0560 ca         1 AWK      -0.132000
     26 C19          9.2170     0.1930    -0.2610 ca         1 AWK      -0.093000
     27 C17          8.0480     0.9740    -0.1230 ca         1 AWK      -0.081300
     28 C18          8.0760     2.4810    -0.3390 c3         1 AWK      -0.041800
     29 H1          -7.1180     0.0350    -2.2910 hc         1 AWK       0.049700
     30 H2          -5.3890     0.1530    -2.0770 hc         1 AWK       0.049700
     31 H3           5.2970     1.7800     0.3470 hn         1 AWK       0.354000
     32 H5          -4.8510     0.1850     2.7680 ha         1 AWK       0.115000
     33 H6          -7.1880     0.3540     3.5910 ha         1 AWK       0.113000
     34 H7          -9.0880     0.1960     1.9850 ha         1 AWK       0.112000
     35 H8          -8.6490    -0.1380    -0.4330 ha         1 AWK       0.112000
     36 H9          -5.2700    -2.3150    -1.5670 hc         1 AWK       0.034367
     37 H10         -7.0330    -2.4290    -1.7760 hc         1 AWK       0.034367
     38 H11         -5.9980    -2.0000    -3.1570 hc         1 AWK       0.034367
     39 H12         -1.4640     1.6750    -1.1960 ha         1 AWK       0.126000
     40 H13         -1.4180    -2.4460     0.1040 ha         1 AWK       0.132000
     41 H14         -3.7780    -2.2380     0.8390 ha         1 AWK       0.122000
     42 H15          0.3150    -1.5260    -1.5100 h1         1 AWK       0.042200
     43 H16          0.3690     0.2110    -1.8430 h1         1 AWK       0.042200
     44 H17          0.8920     0.5790     0.4840 hn         1 AWK       0.408000
     45 H19          2.7600    -1.3950    -0.7020 h1         1 AWK       0.050200
     46 H20          2.7950     0.3580    -0.9740 h1         1 AWK       0.050200
     47 H21          3.1220     0.7150     1.4930 hc         1 AWK       0.059200
     48 H22          3.0970    -1.0250     1.7470 hc         1 AWK       0.059200
     49 H23          7.9120    -2.9120     0.4460 ha         1 AWK       0.128000
     50 H24         10.0760    -1.7990    -0.1650 ha         1 AWK       0.114000
     51 H25         10.1610     0.6640    -0.5260 ha         1 AWK       0.111000
     52 H26          7.7650     3.0130     0.5670 hc         1 AWK       0.040700
     53 H27          9.0810     2.8340    -0.6010 hc         1 AWK       0.040700
     54 H28          7.4000     2.7740    -1.1510 hc         1 AWK       0.040700
     55 Cl          -4.1050     2.4950    -0.5410 cl         1 AWK      -0.201000
@<TRIPOS>BOND
     1     1     3 1   
     2     1    12 1   
     3     1    29 1   
     4     1    30 1   
     5     2    21 1   
     6     2    23 1   
     7     2    31 1   
     8     3     5 ar  
     9     3    11 ar  
    10     4    21 2   
    11     4    22 1   
    12     5     6 ar  
    13     5    10 1   
    14     6     7 ar  
    15     6    32 1   
    16     7     8 ar  
    17     7    33 1   
    18     8    11 ar  
    19     8    34 1   
    20     9    10 ar  
    21     9    13 ar  
    22     9    55 1   
    23    10    16 ar  
    24    11    35 1   
    25    12    36 1   
    26    12    37 1   
    27    12    38 1   
    28    13    14 ar  
    29    13    39 1   
    30    14    15 ar  
    31    14    17 1   
    32    15    16 ar  
    33    15    40 1   
    34    16    41 1   
    35    17    18 1   
    36    17    42 1   
    37    17    43 1   
    38    18    19 1   
    39    18    44 1   
    40    19    20 1   
    41    19    45 1   
    42    19    46 1   
    43    20    21 1   
    44    20    47 1   
    45    20    48 1   
    46    22    23 ar  
    47    22    24 ar  
    48    23    27 ar  
    49    24    25 ar  
    50    24    49 1   
    51    25    26 ar  
    52    25    50 1   
    53    26    27 ar  
    54    26    51 1   
    55    27    28 1   
    56    28    52 1   
    57    28    53 1   
    58    28    54 1   
@<TRIPOS>SUBSTRUCTURE
     1 AWK         1 TEMP              0 ****  ****    0 ROOT
