@<TRIPOS>MOLECULE
AWL
   55    59     1     0     0
SMALL
abcg2


@<TRIPOS>ATOM
      1 C           -0.1900     2.0890     1.0150 c6         1 AWL       0.092000
      2 C10         -4.2980     1.4610    -0.2270 ca         1 AWL      -0.081300
      3 C6           4.2920     0.0900     1.2660 c6         1 AWL      -0.060733
      4 C19          5.4460    -0.6980     0.6420 c6         1 AWL      -0.060700
      5 C17          5.9300     0.0050    -0.6250 c6         1 AWL      -0.069400
      6 C21          4.9750    -2.1080     0.2890 c6         1 AWL      -0.069400
      7 C20          3.8080    -2.0100    -0.6900 c6         1 AWL      -0.060700
      8 C7           2.6570    -1.2350    -0.0430 c6         1 AWL      -0.060733
      9 C18          4.2570    -1.2850    -1.9610 c6         1 AWL      -0.069400
     10 C16          4.7660     0.1140    -1.6060 c6         1 AWL      -0.060700
     11 C8           3.6310     0.9240    -0.9720 c6         1 AWL      -0.060733
     12 C5           3.1030     0.2060     0.2890 c6         1 AWL      -0.111000
     13 C4           1.9890     1.0090     0.9810 c          1 AWL       0.614100
     14 O            2.1560     1.3930     2.1330 o          1 AWL      -0.609100
     15 N            0.8330     1.3120     0.3340 n          1 AWL      -0.414800
     16 C1           0.3900     0.9270    -0.9930 c6         1 AWL       0.092000
     17 C2          -0.9170     0.1510    -0.9220 c6         1 AWL       0.169300
     18 C3          -1.4920     1.3150     1.0900 c6         1 AWL       0.169300
     19 N1          -1.9280     0.9390    -0.2470 nh         1 AWL      -0.786400
     20 C9          -3.2620     0.5170    -0.3570 ca         1 AWL       0.277000
     21 C14         -3.5770    -0.8170    -0.6260 ca         1 AWL      -0.151000
     22 C13         -4.8990    -1.2060    -0.7580 ca         1 AWL       0.136000
     23 CL          -5.2560    -2.8720    -1.1010 cl         1 AWL      -0.210000
     24 C12         -5.9340    -0.3020    -0.6130 ca         1 AWL      -0.117000
     25 C11         -5.6110     1.0220    -0.3490 ca         1 AWL      -0.091000
     26 H1           0.1450     2.3460     2.0150 h1         1 AWL       0.063200
     27 H2          -0.3560     3.0210     0.4640 h1         1 AWL       0.063200
     28 H3           3.9740    -0.4030     2.1870 hc         1 AWL       0.047700
     29 H4           4.6430     1.0860     1.5470 hc         1 AWL       0.047700
     30 H5           6.2610    -0.7530     1.3690 hc         1 AWL       0.050700
     31 H6           6.3180     1.0000    -0.3850 hc         1 AWL       0.041033
     32 H7           6.7560    -0.5570    -1.0750 hc         1 AWL       0.041033
     33 H8           5.7960    -2.6840    -0.1510 hc         1 AWL       0.041033
     34 H9           4.6620    -2.6420     1.1930 hc         1 AWL       0.041033
     35 H10          3.4510    -3.0120    -0.9460 hc         1 AWL       0.050700
     36 H11          1.7990    -1.2620    -0.7150 hc         1 AWL       0.047700
     37 H12          2.3400    -1.7360     0.8780 hc         1 AWL       0.047700
     38 H13          5.0450    -1.8570    -2.4610 hc         1 AWL       0.041033
     39 H14          3.4220    -1.2140    -2.6670 hc         1 AWL       0.041033
     40 H15          5.0930     0.6270    -2.5160 hc         1 AWL       0.050700
     41 H16          3.9900     1.9200    -0.6940 hc         1 AWL       0.047700
     42 H17          2.8530     1.0790    -1.7210 hc         1 AWL       0.047700
     43 H18          0.2450     1.8310    -1.5950 h1         1 AWL       0.063200
     44 H19          1.1210     0.3190    -1.5080 h1         1 AWL       0.063200
     45 H20         -1.2460    -0.0670    -1.9390 h1         1 AWL       0.046200
     46 H21         -0.7230    -0.8120    -0.4230 h1         1 AWL       0.046200
     47 H22         -1.3600     0.4270     1.7270 h1         1 AWL       0.046200
     48 H23         -2.2420     1.9420     1.5700 h1         1 AWL       0.046200
     49 H24         -2.7940    -1.5560    -0.7230 ha         1 AWL       0.128000
     50 H25         -6.9660    -0.6090    -0.7200 ha         1 AWL       0.131000
     51 H26         -6.4140     1.7440    -0.2620 ha         1 AWL       0.116000
     52 H27         -3.9490     3.1710     1.0490 hc         1 AWL       0.046033
     53 H28         -3.0810     3.2170    -0.4790 hc         1 AWL       0.046033
     54 H29         -4.8210     3.5290    -0.4280 hc         1 AWL       0.046033
     55 C15         -4.0200     2.9190    -0.0110 c3         1 AWL      -0.043800
@<TRIPOS>BOND
     1     1    15 1   
     2     1    18 1   
     3     1    26 1   
     4     1    27 1   
     5     2    20 ar  
     6     2    25 ar  
     7     2    55 1   
     8     3     4 1   
     9     3    12 1   
    10     3    28 1   
    11     3    29 1   
    12     4     5 1   
    13     4     6 1   
    14     4    30 1   
    15     5    10 1   
    16     5    31 1   
    17     5    32 1   
    18     6     7 1   
    19     6    33 1   
    20     6    34 1   
    21     7     8 1   
    22     7     9 1   
    23     7    35 1   
    24     8    12 1   
    25     8    36 1   
    26     8    37 1   
    27     9    10 1   
    28     9    38 1   
    29     9    39 1   
    30    10    11 1   
    31    10    40 1   
    32    11    12 1   
    33    11    41 1   
    34    11    42 1   
    35    12    13 1   
    36    13    14 2   
    37    13    15 1   
    38    15    16 1   
    39    16    17 1   
    40    16    43 1   
    41    16    44 1   
    42    17    19 1   
    43    17    45 1   
    44    17    46 1   
    45    18    19 1   
    46    18    47 1   
    47    18    48 1   
    48    19    20 1   
    49    20    21 ar  
    50    21    22 ar  
    51    21    49 1   
    52    22    23 1   
    53    22    24 ar  
    54    24    25 ar  
    55    24    50 1   
    56    25    51 1   
    57    52    55 1   
    58    53    55 1   
    59    54    55 1   
@<TRIPOS>SUBSTRUCTURE
     1 AWL         1 TEMP              0 ****  ****    0 ROOT
