@<TRIPOS>MOLECULE
AWL
   55    59     1     0     0
SMALL
No Charge or Current Charge


@<TRIPOS>ATOM
      1 C           -0.2000     2.0540     1.0360 c6         1 AWL       0.092000
      2 C10         -4.4000     1.5700    -0.4250 ca         1 AWL      -0.081300
      3 C6           4.3110    -0.1230     1.3490 c6         1 AWL      -0.060733
      4 C19          5.5940    -0.6850     0.6750 c6         1 AWL      -0.060700
      5 C17          6.0290     0.2620    -0.4760 c6         1 AWL      -0.069400
      6 C21          5.2970    -2.1000     0.1010 c6         1 AWL      -0.069400
      7 C20          4.1570    -2.0070    -0.9520 c6         1 AWL      -0.060700
      8 C7           2.8670    -1.4510    -0.2790 c6         1 AWL      -0.060733
      9 C18          4.5910    -1.0560    -2.1020 c6         1 AWL      -0.069400
     10 C16          4.8880     0.3570    -1.5250 c6         1 AWL      -0.060700
     11 C8           3.6030     0.9160    -0.8480 c6         1 AWL      -0.060733
     12 C5           3.1200    -0.0220     0.3240 c6         1 AWL      -0.111000
     13 C4           1.8260     0.5400     1.0270 c          1 AWL       0.614100
     14 O            1.7300     0.4640     2.2480 o          1 AWL      -0.609100
     15 N            0.8080     1.2260     0.3100 n          1 AWL      -0.414800
     16 C1           0.2660     0.7920    -1.0120 c6         1 AWL       0.092000
     17 C2          -1.0800     0.0270    -0.8670 c6         1 AWL       0.169300
     18 C3          -1.5490     1.3060     1.2180 c6         1 AWL       0.169300
     19 N1          -2.0790     0.8130    -0.0860 nh         1 AWL      -0.786400
     20 C9          -3.4590     0.5320    -0.2050 ca         1 AWL       0.277000
     21 C14         -3.9070    -0.7970    -0.0980 ca         1 AWL      -0.151000
     22 C13         -5.2710    -1.0980    -0.2040 ca         1 AWL       0.136000
     23 Cl          -5.8140    -2.7650    -0.0630 cl         1 AWL      -0.210000
     24 C12         -6.2050    -0.0740    -0.4170 ca         1 AWL      -0.117000
     25 C11         -5.7710     1.2570    -0.5270 ca         1 AWL      -0.091000
     26 H1           0.1830     2.3680     2.0170 h1         1 AWL       0.063200
     27 H2          -0.3810     2.9720     0.4600 h1         1 AWL       0.063200
     28 H3           4.0360    -0.7740     2.1910 hc         1 AWL       0.047700
     29 H4           4.5220     0.8650     1.7830 hc         1 AWL       0.047700
     30 H5           6.4000    -0.7530     1.4190 hc         1 AWL       0.050700
     31 H6           6.2660     1.2590    -0.0790 hc         1 AWL       0.041033
     32 H7           6.9490    -0.1110    -0.9480 hc         1 AWL       0.041033
     33 H8           6.2030    -2.5210    -0.3570 hc         1 AWL       0.041033
     34 H9           5.0110    -2.7860     0.9110 hc         1 AWL       0.041033
     35 H10          3.9540    -3.0070    -1.3600 hc         1 AWL       0.050700
     36 H11          2.0530    -1.4610    -1.0090 hc         1 AWL       0.047700
     37 H12          2.5500    -2.1340     0.5210 hc         1 AWL       0.047700
     38 H13          5.4820    -1.4540    -2.6070 hc         1 AWL       0.041033
     39 H14          3.8030    -0.9970    -2.8650 hc         1 AWL       0.041033
     40 H15          5.1950     1.0280    -2.3390 hc         1 AWL       0.050700
     41 H16          3.8020     1.9230    -0.4570 hc         1 AWL       0.047700
     42 H17          2.8430     1.0490    -1.6230 hc         1 AWL       0.047700
     43 H18          0.0950     1.6860    -1.6280 h1         1 AWL       0.063200
     44 H19          0.9640     0.1630    -1.5680 h1         1 AWL       0.063200
     45 H20         -1.4710    -0.1900    -1.8720 h1         1 AWL       0.046200
     46 H21         -0.8880    -0.9360    -0.3720 h1         1 AWL       0.046200
     47 H22         -1.3980     0.4590     1.9030 h1         1 AWL       0.046200
     48 H23         -2.2690     1.9870     1.6940 h1         1 AWL       0.046200
     49 H24         -3.1960    -1.5980     0.0780 ha         1 AWL       0.128000
     50 H25         -7.2620    -0.3120    -0.4980 ha         1 AWL       0.131000
     51 H26         -6.5020     2.0450    -0.6950 ha         1 AWL       0.116000
     52 H27         -3.6910     3.4520     0.4080 hc         1 AWL       0.046033
     53 H28         -3.0860     3.1170    -1.2240 hc         1 AWL       0.046033
     54 H29         -4.7520     3.6510    -0.9920 hc         1 AWL       0.046033
     55 C15         -3.9590     3.0260    -0.5660 c3         1 AWL      -0.043800
@<TRIPOS>BOND
     1     1    15 1   
     2     1    18 1   
     3     1    26 1   
     4     1    27 1   
     5     2    20 ar  
     6     2    25 ar  
     7     2    55 1   
     8     3     4 1   
     9     3    12 1   
    10     3    28 1   
    11     3    29 1   
    12     4     5 1   
    13     4     6 1   
    14     4    30 1   
    15     5    10 1   
    16     5    31 1   
    17     5    32 1   
    18     6     7 1   
    19     6    33 1   
    20     6    34 1   
    21     7     8 1   
    22     7     9 1   
    23     7    35 1   
    24     8    12 1   
    25     8    36 1   
    26     8    37 1   
    27     9    10 1   
    28     9    38 1   
    29     9    39 1   
    30    10    11 1   
    31    10    40 1   
    32    11    12 1   
    33    11    41 1   
    34    11    42 1   
    35    12    13 1   
    36    13    14 2   
    37    13    15 1   
    38    15    16 1   
    39    16    17 1   
    40    16    43 1   
    41    16    44 1   
    42    17    19 1   
    43    17    45 1   
    44    17    46 1   
    45    18    19 1   
    46    18    47 1   
    47    18    48 1   
    48    19    20 1   
    49    20    21 ar  
    50    21    22 ar  
    51    21    49 1   
    52    22    23 1   
    53    22    24 ar  
    54    24    25 ar  
    55    24    50 1   
    56    25    51 1   
    57    52    55 1   
    58    53    55 1   
    59    54    55 1   
@<TRIPOS>SUBSTRUCTURE
     1 AWL         1 TEMP              0 ****  ****    0 ROOT
