@<TRIPOS>MOLECULE
AWM
   31    33     1     0     0
SMALL
bcc


@<TRIPOS>ATOM
      1 N1          -4.0800     0.1480     0.3120 n3         1 AWM      -0.716600
      2 N3           0.8430     1.0340     0.2240 nc         1 AWM      -0.638100
      3 C4          -1.9150     1.2380     0.6090 c6         1 AWM       0.216800
      4 C5          -3.3110     1.3420     0.0300 c6         1 AWM       0.153300
      5 C6           0.0850    -0.0070     0.1070 cd         1 AWM       0.652100
      6 C7           2.1650     0.7040     0.0910 ca         1 AWM       0.145400
      7 C8           3.2280     1.6020     0.1520 ca         1 AWM      -0.099000
      8 C10          4.7710    -0.2290    -0.1980 ca         1 AWM      -0.140000
      9 C1          -5.4520     0.2760    -0.1180 c3         1 AWM       0.153100
     10 C2          -3.4330    -1.0030    -0.2740 c6         1 AWM       0.153300
     11 C3          -2.0400    -1.1890     0.3000 c6         1 AWM       0.216800
     12 N2          -1.2620     0.0230     0.1460 nh         1 AWM      -0.721600
     13 C9           4.5200     1.1270     0.0090 ca         1 AWM      -0.118000
     14 C11          3.7260    -1.1380    -0.2650 ca         1 AWM      -0.079000
     15 C12          2.4350    -0.6580    -0.1200 ca         1 AWM      -0.067100
     16 S1           0.9350    -1.5360    -0.1490 ss         1 AWM      -0.169100
     17 H2          -1.3270     2.0960     0.2960 h1         1 AWM       0.059700
     18 H3          -1.9610     1.2460     1.7040 h1         1 AWM       0.059700
     19 H4          -3.2430     1.5400    -1.0530 h1         1 AWM       0.043200
     20 H5          -3.8030     2.2050     0.4830 h1         1 AWM       0.043200
     21 H6           3.0340     2.6540     0.3110 ha         1 AWM       0.146000
     22 H7           5.7890    -0.5780    -0.3090 ha         1 AWM       0.132000
     23 H8          -5.5590     0.4310    -1.2020 h1         1 AWM       0.033033
     24 H9          -6.0130    -0.6200     0.1500 h1         1 AWM       0.033033
     25 H10         -5.9200     1.1220     0.3860 h1         1 AWM       0.033033
     26 H11         -4.0170    -1.8990    -0.0520 h1         1 AWM       0.043200
     27 H12         -3.3630    -0.9230    -1.3740 h1         1 AWM       0.043200
     28 H13         -2.1090    -1.4730     1.3570 h1         1 AWM       0.059700
     29 H14         -1.5610    -2.0100    -0.2350 h1         1 AWM       0.059700
     30 H15          5.3480     1.8210     0.0570 ha         1 AWM       0.132000
     31 H16          3.9180    -2.1900    -0.4270 ha         1 AWM       0.138000
@<TRIPOS>BOND
     1     1     4 1   
     2     1     9 1   
     3     1    10 1   
     4     2     5 2   
     5     2     6 1   
     6     3     4 1   
     7     3    12 1   
     8     3    17 1   
     9     3    18 1   
    10     4    19 1   
    11     4    20 1   
    12     5    12 1   
    13     5    16 1   
    14     6     7 ar  
    15     6    15 ar  
    16     7    13 ar  
    17     7    21 1   
    18     8    13 ar  
    19     8    14 ar  
    20     8    22 1   
    21     9    23 1   
    22     9    24 1   
    23     9    25 1   
    24    10    11 1   
    25    10    26 1   
    26    10    27 1   
    27    11    12 1   
    28    11    28 1   
    29    11    29 1   
    30    13    30 1   
    31    14    15 ar  
    32    14    31 1   
    33    15    16 1   
@<TRIPOS>SUBSTRUCTURE
     1 AWM         1 TEMP              0 ****  ****    0 ROOT
