@<TRIPOS>MOLECULE
AWM
   31    33     1     0     0
SMALL
No Charge or Current Charge


@<TRIPOS>ATOM
      1 N1          -4.1880     0.1460     0.3400 n3         1 AWM      -0.716600
      2 N3           0.8980     1.0890     0.1490 nc         1 AWM      -0.638100
      3 C4          -1.9150     1.2620     0.5900 c6         1 AWM       0.216800
      4 C5          -3.3840     1.3760     0.0760 c6         1 AWM       0.153300
      5 C6           0.1860    -0.0390     0.0490 cd         1 AWM       0.652100
      6 C7           2.2330     0.7060     0.0570 ca         1 AWM       0.145400
      7 C8           3.3050     1.6130     0.1220 ca         1 AWM      -0.081000
      8 C10          4.8790    -0.2380    -0.1460 ca         1 AWM      -0.122000
      9 C1          -5.5950     0.2800    -0.0940 c3         1 AWM       0.153100
     10 C2          -3.5080    -1.0360    -0.2680 c6         1 AWM       0.153300
     11 C3          -2.0410    -1.2200     0.2340 c6         1 AWM       0.216800
     12 N2          -1.2170     0.0260     0.1020 nh         1 AWM      -0.721600
     13 C9           4.6290     1.1400     0.0200 ca         1 AWM      -0.100000
     14 C11          3.8050    -1.1450    -0.2110 ca         1 AWM      -0.061000
     15 C12          2.4990    -0.6450    -0.1070 ca         1 AWM      -0.194000
     16 S1           1.0300    -1.6000    -0.1630 ss         1 AWM      -0.042200
     17 H2          -1.3840     2.1720     0.2750 h1         1 AWM       0.059700
     18 H3          -1.9270     1.2640     1.6900 h1         1 AWM       0.059700
     19 H4          -3.3570     1.5820    -1.0040 h1         1 AWM       0.043200
     20 H5          -3.8530     2.2480     0.5550 h1         1 AWM       0.043200
     21 H6           3.1110     2.6750     0.2500 ha         1 AWM       0.128000
     22 H7           5.9010    -0.6010    -0.2250 ha         1 AWM       0.114000
     23 H8          -5.6580     0.4380    -1.1790 h1         1 AWM       0.033033
     24 H9          -6.1660    -0.6240     0.1560 h1         1 AWM       0.033033
     25 H10         -6.0750     1.1320     0.4060 h1         1 AWM       0.033033
     26 H11         -4.0690    -1.9550    -0.0440 h1         1 AWM       0.043200
     27 H12         -3.4880    -0.9350    -1.3630 h1         1 AWM       0.043200
     28 H13         -2.0670    -1.5320     1.2890 h1         1 AWM       0.059700
     29 H14         -1.6040    -2.0510    -0.3360 h1         1 AWM       0.059700
     30 H15          5.4600     1.8400     0.0700 ha         1 AWM       0.114000
     31 H16          3.9860    -2.2110    -0.3390 ha         1 AWM       0.120000
@<TRIPOS>BOND
     1     1     4 1   
     2     1     9 1   
     3     1    10 1   
     4     2     5 2   
     5     2     6 1   
     6     3     4 1   
     7     3    12 1   
     8     3    17 1   
     9     3    18 1   
    10     4    19 1   
    11     4    20 1   
    12     5    12 1   
    13     5    16 1   
    14     6     7 ar  
    15     6    15 ar  
    16     7    13 ar  
    17     7    21 1   
    18     8    13 ar  
    19     8    14 ar  
    20     8    22 1   
    21     9    23 1   
    22     9    24 1   
    23     9    25 1   
    24    10    11 1   
    25    10    26 1   
    26    10    27 1   
    27    11    12 1   
    28    11    28 1   
    29    11    29 1   
    30    13    30 1   
    31    14    15 ar  
    32    14    31 1   
    33    15    16 1   
@<TRIPOS>SUBSTRUCTURE
     1 AWM         1 TEMP              0 ****  ****    0 ROOT
