@<TRIPOS>MOLECULE
AWN
   46    49     1     0     0
SMALL
bcc


@<TRIPOS>ATOM
      1 C8          -8.0770     0.8100    -1.0440 ca         1 AWN      -0.134000
      2 C5          -3.1480     0.4570    -0.6610 c3         1 AWN      -0.093700
      3 C4          -2.3200     0.1920     0.5880 c3         1 AWN       0.165800
      4 C2           1.3940     0.2090     1.0630 ca         1 AWN      -0.080300
      5 N1          -5.5520     0.9400    -1.0940 na         1 AWN      -0.265300
      6 C6          -4.6020     0.2170    -0.4460 cc         1 AWN       0.416800
      7 C            3.2020    -0.4420    -0.3870 ca         1 AWN       0.034400
      8 C15          4.1240     0.3110     0.3420 cp         1 AWN      -0.025000
      9 C16          5.5600     0.3990    -0.0040 cp         1 AWN      -0.041000
     10 C21          6.3690    -0.7360    -0.0290 ca         1 AWN      -0.107500
     11 C20          7.7220    -0.6290    -0.3150 ca         1 AWN      -0.131500
     12 C19          8.2840     0.6130    -0.5830 ca         1 AWN      -0.122000
     13 C18          7.4860     1.7480    -0.5590 ca         1 AWN      -0.131500
     14 C17          6.1330     1.6420    -0.2680 ca         1 AWN      -0.107500
     15 C14          3.6340     1.0190     1.4370 ca         1 AWN      -0.115000
     16 C13          2.2950     0.9720     1.7950 ca         1 AWN      -0.126000
     17 C1           1.8620    -0.4930    -0.0430 ca         1 AWN      -0.100000
     18 C3          -0.0610     0.1330     1.4420 c3         1 AWN       0.207100
     19 N           -0.9130     0.3790     0.2960 n7         1 AWN      -0.813200
     20 N2          -5.1140    -0.6980     0.3340 nd         1 AWN      -0.579100
     21 C12         -6.4760    -0.5750     0.1940 ca         1 AWN       0.070400
     22 C7          -6.7750     0.4590    -0.7100 ca         1 AWN      -0.080200
     23 C11         -7.5120    -1.2940     0.7900 ca         1 AWN      -0.067000
     24 C10         -8.8130    -0.9520     0.4610 ca         1 AWN      -0.153000
     25 C9          -9.0910     0.0840    -0.4420 ca         1 AWN      -0.111000
     26 H1          -8.2910     1.6110    -1.7400 ha         1 AWN       0.134000
     27 H2          -2.9990     1.4870    -0.9970 hc         1 AWN       0.060700
     28 H3          -2.7940    -0.1850    -1.4730 hc         1 AWN       0.060700
     29 H4          -2.6790     0.8310     1.4090 h1         1 AWN       0.049200
     30 H5          -2.4700    -0.8410     0.9120 h1         1 AWN       0.049200
     31 H6          -5.3810     1.7000    -1.7330 hn         1 AWN       0.304700
     32 H7           5.9440    -1.7070     0.1910 ha         1 AWN       0.135000
     33 H8           8.3400    -1.5180    -0.3250 ha         1 AWN       0.131500
     34 H9           9.3400     0.6940    -0.8060 ha         1 AWN       0.130000
     35 H10          7.9150     2.7190    -0.7690 ha         1 AWN       0.131500
     36 H11          5.5130     2.5300    -0.2560 ha         1 AWN       0.135000
     37 H12          4.3220     1.6150     2.0220 ha         1 AWN       0.138000
     38 H13          1.9520     1.5340     2.6550 ha         1 AWN       0.133000
     39 H14          1.1720    -1.0750    -0.6410 ha         1 AWN       0.162000
     40 H15         -0.2810    -0.8730     1.8140 h1         1 AWN       0.041700
     41 H16         -0.2520     0.8170     2.2820 h1         1 AWN       0.041700
     42 H17         -0.7600     1.3280    -0.0250 hn         1 AWN       0.351800
     43 H20         -7.3040    -2.0950     1.4870 ha         1 AWN       0.146000
     44 H21         -9.6350    -1.4960     0.9080 ha         1 AWN       0.132000
     45 H22        -10.1210     0.3220    -0.6730 ha         1 AWN       0.130000
     46 CL           3.7100    -1.3150    -1.8000 cl         1 AWN      -0.109400
@<TRIPOS>BOND
     1     1    22 ar  
     2     1    25 ar  
     3     1    26 1   
     4     2     3 1   
     5     2     6 1   
     6     2    27 1   
     7     2    28 1   
     8     3    19 1   
     9     3    29 1   
    10     3    30 1   
    11     4    16 ar  
    12     4    17 ar  
    13     4    18 1   
    14     5     6 1   
    15     5    22 1   
    16     5    31 1   
    17     6    20 2   
    18     7     8 ar  
    19     7    17 ar  
    20     7    46 1   
    21     8     9 1   
    22     8    15 ar  
    23     9    10 ar  
    24     9    14 ar  
    25    10    11 ar  
    26    10    32 1   
    27    11    12 ar  
    28    11    33 1   
    29    12    13 ar  
    30    12    34 1   
    31    13    14 ar  
    32    13    35 1   
    33    14    36 1   
    34    15    16 ar  
    35    15    37 1   
    36    16    38 1   
    37    17    39 1   
    38    18    19 1   
    39    18    40 1   
    40    18    41 1   
    41    19    42 1   
    42    20    21 1   
    43    21    22 ar  
    44    21    23 ar  
    45    23    24 ar  
    46    23    43 1   
    47    24    25 ar  
    48    24    44 1   
    49    25    45 1   
@<TRIPOS>SUBSTRUCTURE
     1 AWN         1 TEMP              0 ****  ****    0 ROOT
