@<TRIPOS>MOLECULE
AWN
   46    49     1     0     0
SMALL
No Charge or Current Charge


@<TRIPOS>ATOM
      1 C8          -7.9070     1.3350     0.0090 ca         1 AWN      -0.116000
      2 C5          -3.1430     0.0920    -0.8150 c3         1 AWN      -0.093700
      3 C4          -2.3680    -0.0250     0.5080 c3         1 AWN       0.165800
      4 C2           1.4050     0.0700     1.0690 ca         1 AWN      -0.080300
      5 N1          -5.4430     1.1140    -0.3780 na         1 AWN      -0.315600
      6 C6          -4.6280     0.0100    -0.6110 cc         1 AWN       0.416800
      7 C            3.4250    -0.8810     0.0720 ca         1 AWN       0.126000
      8 C15          4.1520     0.3090     0.3550 cp         1 AWN      -0.025000
      9 C16          5.5950     0.4760     0.0010 cp         1 AWN      -0.041000
     10 C21          6.5730    -0.4580     0.4240 ca         1 AWN      -0.089500
     11 C20          7.9290    -0.2830     0.0990 ca         1 AWN      -0.113500
     12 C19          8.3340     0.8340    -0.6500 ca         1 AWN      -0.104000
     13 C18          7.3820     1.7780    -1.0680 ca         1 AWN      -0.113500
     14 C17          6.0260     1.6020    -0.7420 ca         1 AWN      -0.089500
     15 C14          3.4640     1.3720     0.9890 ca         1 AWN      -0.097000
     16 C13          2.1100     1.2560     1.3430 ca         1 AWN      -0.108000
     17 C1           2.0700    -0.9920     0.4290 ca         1 AWN      -0.082000
     18 C3          -0.0630    -0.0650     1.4490 c3         1 AWN       0.207100
     19 N           -0.9170     0.0680     0.2550 n7         1 AWN      -0.868400
     20 N2          -5.3460    -1.1320    -0.6210 nd         1 AWN      -0.579100
     21 C12         -6.6510    -0.7090    -0.3850 ca         1 AWN       0.070400
     22 C7          -6.7130     0.6470    -0.2380 ca         1 AWN      -0.080200
     23 C11         -7.8120    -1.4910    -0.2920 ca         1 AWN      -0.049000
     24 C10         -9.0410    -0.8380    -0.0430 ca         1 AWN      -0.135000
     25 C9          -9.0890     0.5700     0.1070 ca         1 AWN      -0.093000
     26 H1          -7.9250     2.4160     0.1220 ha         1 AWN       0.116000
     27 H2          -2.8930     1.0410    -1.3040 hc         1 AWN       0.060700
     28 H3          -2.8220    -0.7070    -1.4940 hc         1 AWN       0.060700
     29 H4          -2.6940     0.7750     1.1880 h1         1 AWN       0.049200
     30 H5          -2.6160    -0.9860     0.9810 h1         1 AWN       0.049200
     31 H6          -5.1380     2.0770    -0.3280 hn         1 AWN       0.355000
     32 H7           6.2760    -1.3200     1.0160 ha         1 AWN       0.117000
     33 H8           8.6660    -1.0110     0.4300 ha         1 AWN       0.113500
     34 H9           9.3840     0.9710    -0.9010 ha         1 AWN       0.112000
     35 H10          7.6940     2.6470    -1.6450 ha         1 AWN       0.113500
     36 H11          5.2980     2.3390    -1.0740 ha         1 AWN       0.117000
     37 H12          3.9940     2.2950     1.2150 ha         1 AWN       0.120000
     38 H13          1.6090     2.0890     1.8330 ha         1 AWN       0.115000
     39 H14          1.5290    -1.9060     0.1970 ha         1 AWN       0.144000
     40 H15         -0.2190    -1.0430     1.9260 h1         1 AWN       0.041700
     41 H16         -0.3170     0.7040     2.1920 h1         1 AWN       0.041700
     42 H17         -0.7180     0.9820    -0.1690 hn         1 AWN       0.407000
     43 H20         -7.7650    -2.5700    -0.4090 ha         1 AWN       0.128000
     44 H21         -9.9560    -1.4210     0.0330 ha         1 AWN       0.114000
     45 H22        -10.0390     1.0630     0.2980 ha         1 AWN       0.112000
     46 Cl           4.1600    -2.2430    -0.7750 cl         1 AWN      -0.201000
@<TRIPOS>BOND
     1     1    22 ar  
     2     1    25 ar  
     3     1    26 1   
     4     2     3 1   
     5     2     6 1   
     6     2    27 1   
     7     2    28 1   
     8     3    19 1   
     9     3    29 1   
    10     3    30 1   
    11     4    16 ar  
    12     4    17 ar  
    13     4    18 1   
    14     5     6 1   
    15     5    22 1   
    16     5    31 1   
    17     6    20 2   
    18     7     8 ar  
    19     7    17 ar  
    20     7    46 1   
    21     8     9 1   
    22     8    15 ar  
    23     9    10 ar  
    24     9    14 ar  
    25    10    11 ar  
    26    10    32 1   
    27    11    12 ar  
    28    11    33 1   
    29    12    13 ar  
    30    12    34 1   
    31    13    14 ar  
    32    13    35 1   
    33    14    36 1   
    34    15    16 ar  
    35    15    37 1   
    36    16    38 1   
    37    17    39 1   
    38    18    19 1   
    39    18    40 1   
    40    18    41 1   
    41    19    42 1   
    42    20    21 1   
    43    21    22 ar  
    44    21    23 ar  
    45    23    24 ar  
    46    23    43 1   
    47    24    25 ar  
    48    24    44 1   
    49    25    45 1   
@<TRIPOS>SUBSTRUCTURE
     1 AWN         1 TEMP              0 ****  ****    0 ROOT
