@<TRIPOS>MOLECULE
AWO
   62    66     1     0     0
SMALL
abcg2


@<TRIPOS>ATOM
      1 C15         -9.6040    -1.5240     0.9790 cc         1 AWO      -0.134000
      2 C17        -10.4470    -0.6190    -0.9990 cc         1 AWO      -0.134000
      3 C20        -12.7390    -1.2360     1.0990 c3         1 AWO      -0.128100
      4 C21          1.6370     0.9650     0.2980 ca         1 AWO      -0.018000
      5 C22          2.4010     2.1340     0.3420 ca         1 AWO      -0.075000
      6 C24          4.4350     0.8560     0.5980 ca         1 AWO      -0.012000
      7 C26          2.3070    -0.2520     0.4240 ca         1 AWO      -0.075000
      8 C28          6.7080    -0.0750     0.3920 c          1 AWO       0.674100
      9 C1          -0.5620     2.0100    -0.4540 cc         1 AWO       0.311900
     10 C3          -2.2310     0.7160     0.1110 cd         1 AWO       0.713300
     11 C5           0.1920     1.0330     0.1220 cd         1 AWO      -0.177000
     12 C7          -4.6360     0.5130    -0.4010 ca         1 AWO       0.398900
     13 C9          -5.6740     1.4350    -2.1590 ca         1 AWO       0.187900
     14 C11         -6.9830     0.3110    -0.6910 ca         1 AWO       0.283500
     15 C12         -5.8420     0.0200     0.0720 ca         1 AWO      -0.351000
     16 C14         -8.4930    -0.7960     0.8610 cd         1 AWO      -0.156000
     17 C18         -9.3550     0.1290    -1.1530 cd         1 AWO      -0.156000
     18 C23          3.7730     2.0790     0.4780 ca         1 AWO      -0.137500
     19 C25          3.6810    -0.3170     0.5830 ca         1 AWO      -0.137500
     20 C30          9.1110    -0.4950     0.3720 cc         1 AWO       0.419900
     21 C33         10.5560    -1.9520    -0.3510 cd         1 AWO       0.191300
     22 C34          9.2240    -1.7050    -0.3640 cc         1 AWO      -0.241000
     23 C35         11.3770    -3.0370    -0.9450 c3         1 AWO      -0.118700
     24 C36         12.3920    -2.5280    -1.9680 c3         1 AWO      -0.088100
     25 N2          -1.9130     1.8350    -0.4490 nc         1 AWO      -0.648000
     26 N6          -3.4900     0.2180     0.3050 nu         1 AWO      -0.902800
     27 N8          -4.5340     1.2300    -1.5200 nb         1 AWO      -0.228000
     28 N10         -6.8780     1.0280    -1.8250 nb         1 AWO      -0.278000
     29 N13         -8.2210    -0.0890    -0.3330 na         1 AWO      -0.073500
     30 N16        -10.5470    -1.6160    -0.0340 na         1 AWO      -0.071000
     31 N27          5.8200     0.8860     0.7800 ns         1 AWO      -0.159000
     32 N29          8.0070     0.2610     0.6850 ns         1 AWO      -0.495400
     33 N31         10.2780    -0.0720     0.7790 nd         1 AWO      -0.440300
     34 O32         11.1830    -0.9890     0.3250 os         1 AWO      -0.063700
     35 O37          6.3980    -1.1170    -0.1510 o          1 AWO      -0.593100
     36 S4          -0.8750    -0.2180     0.6820 ss         1 AWO      -0.111400
     37 H1          -9.8180    -2.0470     1.9000 h4         1 AWO       0.133500
     38 H2         -11.3140    -0.4510    -1.6230 h4         1 AWO       0.133500
     39 H3         -12.2730    -0.9890     2.0540 hc         1 AWO       0.042367
     40 H4         -12.9430    -0.3040     0.5710 hc         1 AWO       0.042367
     41 H5         -13.6950    -1.7170     1.3090 hc         1 AWO       0.042367
     42 H6           1.9210     3.1020     0.2750 ha         1 AWO       0.119500
     43 H7           1.7530    -1.1830     0.3940 ha         1 AWO       0.119500
     44 H8          -0.1510     2.9020    -0.9050 h4         1 AWO       0.043100
     45 H9          -5.6050     2.0090    -3.0780 h5         1 AWO       0.047100
     46 H10         -5.8750    -0.5730     0.9750 ha         1 AWO       0.127000
     47 H11         -7.8110    -0.6860     1.6880 h4         1 AWO       0.154000
     48 H12         -9.2920     0.9090    -1.8910 h4         1 AWO       0.154000
     49 H13        -11.7050    -3.1060     0.8040 h1         1 AWO       0.055700
     50 H14        -12.3440    -2.4150    -0.6660 h1         1 AWO       0.055700
     51 H15          4.3410     3.0020     0.5030 ha         1 AWO       0.127500
     52 H16          4.1470    -1.2820     0.6980 ha         1 AWO       0.127500
     53 H17          8.4550    -2.2930    -0.8270 ha         1 AWO       0.177000
     54 H18         11.8940    -3.5790    -0.1480 hc         1 AWO       0.064200
     55 H19         10.6960    -3.7470    -1.4140 hc         1 AWO       0.064200
     56 H20         12.9270    -3.3690    -2.4080 hc         1 AWO       0.043700
     57 H21         11.9010    -1.9830    -2.7730 hc         1 AWO       0.043700
     58 H22         13.1290    -1.8680    -1.5110 hc         1 AWO       0.043700
     59 H23         -3.5980    -0.4560     1.0470 hn         1 AWO       0.509000
     60 H24          6.1920     1.7760     1.0750 hn         1 AWO       0.151000
     61 H25          8.1970     1.1140     1.1920 hn         1 AWO       0.335500
     62 C19        -11.8570    -2.1630     0.2770 c3         1 AWO       0.065600
@<TRIPOS>BOND
     1     1    16 2   
     2     1    30 1   
     3     1    37 1   
     4     2    17 2   
     5     2    30 1   
     6     2    38 1   
     7     3    39 1   
     8     3    40 1   
     9     3    41 1   
    10     3    62 1   
    11     4     5 ar  
    12     4     7 ar  
    13     4    11 1   
    14     5    18 ar  
    15     5    42 1   
    16     6    18 ar  
    17     6    19 ar  
    18     6    31 1   
    19     7    19 ar  
    20     7    43 1   
    21     8    31 1   
    22     8    32 1   
    23     8    35 2   
    24     9    11 2   
    25     9    25 1   
    26     9    44 1   
    27    10    25 2   
    28    10    26 1   
    29    10    36 1   
    30    11    36 1   
    31    12    15 ar  
    32    12    26 1   
    33    12    27 ar  
    34    13    27 ar  
    35    13    28 ar  
    36    13    45 1   
    37    14    15 ar  
    38    14    28 ar  
    39    14    29 1   
    40    15    46 1   
    41    16    29 1   
    42    16    47 1   
    43    17    29 1   
    44    17    48 1   
    45    18    51 1   
    46    19    52 1   
    47    20    22 1   
    48    20    32 1   
    49    20    33 2   
    50    21    22 2   
    51    21    23 1   
    52    21    34 1   
    53    22    53 1   
    54    23    24 1   
    55    23    54 1   
    56    23    55 1   
    57    24    56 1   
    58    24    57 1   
    59    24    58 1   
    60    26    59 1   
    61    30    62 1   
    62    31    60 1   
    63    32    61 1   
    64    33    34 1   
    65    49    62 1   
    66    50    62 1   
@<TRIPOS>SUBSTRUCTURE
     1 AWO         1 TEMP              0 ****  ****    0 ROOT
