@<TRIPOS>MOLECULE
AWO
   62    66     1     0     0
SMALL
No Charge or Current Charge


@<TRIPOS>ATOM
      1 C15        -10.1110    -0.9880     1.3240 cc         1 AWO      -0.134000
      2 C17        -10.1740    -0.9940    -1.0830 cc         1 AWO      -0.134000
      3 C20        -13.0960    -1.8520     0.2010 c3         1 AWO      -0.128100
      4 C21          1.6570     1.0250    -0.0630 ca         1 AWO      -0.018000
      5 C22          2.4350     2.2010    -0.0900 ca         1 AWO      -0.075000
      6 C24          4.5030     0.8950    -0.0920 ca         1 AWO      -0.012000
      7 C26          2.3250    -0.2180    -0.0510 ca         1 AWO      -0.075000
      8 C28          6.8700    -0.1070    -0.0990 c          1 AWO       0.674100
      9 C1          -0.6010     2.2340    -0.0570 cc         1 AWO       0.311900
     10 C3          -2.2200     0.7510    -0.0160 cd         1 AWO       0.713300
     11 C5           0.1790     1.0960    -0.0480 cd         1 AWO      -0.177000
     12 C7          -4.7600     0.8740     0.0100 ca         1 AWO       0.398900
     13 C9          -6.1350     2.6960    -0.0040 ca         1 AWO       0.187900
     14 C11         -7.1610     0.6280     0.0420 ca         1 AWO       0.283500
     15 C12         -5.8810     0.0420     0.0370 ca         1 AWO      -0.351000
     16 C14         -8.9200    -0.2810     1.2830 cd         1 AWO      -0.156000
     17 C18         -8.9830    -0.2870    -1.1090 cd         1 AWO      -0.156000
     18 C23          3.8390     2.1340    -0.1040 ca         1 AWO      -0.137500
     19 C25          3.7300    -0.2840    -0.0650 ca         1 AWO      -0.137500
     20 C30          9.3460    -0.2940    -0.1230 cc         1 AWO       0.419900
     21 C33         10.8730    -1.8590    -0.1120 cd         1 AWO       0.191300
     22 C34          9.5310    -1.6860    -0.0980 cc         1 AWO      -0.241000
     23 C35         11.7000    -3.1160    -0.0940 c3         1 AWO      -0.118700
     24 C36         12.3140    -3.4450    -1.4690 c3         1 AWO      -0.088100
     25 N2          -1.9600     2.0390    -0.0390 nc         1 AWO      -0.648000
     26 N6          -3.5020     0.2900     0.0060 nu         1 AWO      -0.902800
     27 N8          -4.8810     2.2110    -0.0100 nb         1 AWO      -0.228000
     28 N10         -7.2740     1.9760     0.0210 nb         1 AWO      -0.278000
     29 N13         -8.2500    -0.2480     0.0690 na         1 AWO      -0.073500
     30 N16        -10.5980    -1.5580     0.1340 na         1 AWO      -0.071000
     31 N27          5.9260     0.9090    -0.1070 ns         1 AWO      -0.159000
     32 N29          8.1520     0.3850    -0.1230 ns         1 AWO      -0.495400
     33 N31         10.4760     0.3850    -0.1490 nd         1 AWO      -0.440300
     34 O32         11.4930    -0.6380    -0.1400 os         1 AWO      -0.063700
     35 O37          6.6080    -1.2990    -0.0740 o          1 AWO      -0.593100
     36 S4          -0.8410    -0.3370    -0.0140 ss         1 AWO      -0.111400
     37 H1         -10.6730    -1.1790     2.2300 h4         1 AWO       0.133500
     38 H2         -10.7830    -1.1900    -1.9570 h4         1 AWO       0.133500
     39 H3         -13.1980    -1.2200     1.0920 hc         1 AWO       0.042367
     40 H4         -13.2450    -1.2260    -0.6870 hc         1 AWO       0.042367
     41 H5         -13.8870    -2.6100     0.2240 hc         1 AWO       0.042367
     42 H6           1.9630     3.1790    -0.1000 ha         1 AWO       0.119500
     43 H7           1.7650    -1.1490    -0.0300 ha         1 AWO       0.119500
     44 H8          -0.2480     3.2560    -0.0770 h4         1 AWO       0.043100
     45 H9          -6.2410     3.7790    -0.0210 h5         1 AWO       0.047100
     46 H10         -5.7750    -1.0380     0.0540 ha         1 AWO       0.127000
     47 H11         -8.4410     0.1650     2.1490 h4         1 AWO       0.154000
     48 H12         -8.5500     0.1540    -2.0010 h4         1 AWO       0.154000
     49 H13        -11.5950    -3.1640     1.0510 h1         1 AWO       0.055700
     50 H14        -11.6420    -3.1690    -0.7190 h1         1 AWO       0.055700
     51 H15          4.4130     3.0580    -0.1250 ha         1 AWO       0.127500
     52 H16          4.1930    -1.2650    -0.0550 ha         1 AWO       0.127500
     53 H17          8.7710    -2.4560    -0.0750 ha         1 AWO       0.177000
     54 H18         12.5050    -3.0170     0.6440 hc         1 AWO       0.064200
     55 H19         11.0820    -3.9610     0.2330 hc         1 AWO       0.064200
     56 H20         12.9030    -4.3680    -1.4160 hc         1 AWO       0.043700
     57 H21         11.5270    -3.5810    -2.2210 hc         1 AWO       0.043700
     58 H22         12.9740    -2.6350    -1.8030 hc         1 AWO       0.043700
     59 H23         -3.5250    -0.7230     0.0230 hn         1 AWO       0.509000
     60 H24          6.3170     1.8410    -0.1290 hn         1 AWO       0.151000
     61 H25          8.2210     1.3910    -0.1420 hn         1 AWO       0.335500
     62 C19        -11.7100    -2.5250     0.1660 c3         1 AWO       0.065600
@<TRIPOS>BOND
     1     1    16 2   
     2     1    30 1   
     3     1    37 1   
     4     2    17 2   
     5     2    30 1   
     6     2    38 1   
     7     3    39 1   
     8     3    40 1   
     9     3    41 1   
    10     3    62 1   
    11     4     5 ar  
    12     4     7 ar  
    13     4    11 1   
    14     5    18 ar  
    15     5    42 1   
    16     6    18 ar  
    17     6    19 ar  
    18     6    31 1   
    19     7    19 ar  
    20     7    43 1   
    21     8    31 1   
    22     8    32 1   
    23     8    35 2   
    24     9    11 2   
    25     9    25 1   
    26     9    44 1   
    27    10    25 2   
    28    10    26 1   
    29    10    36 1   
    30    11    36 1   
    31    12    15 ar  
    32    12    26 1   
    33    12    27 ar  
    34    13    27 ar  
    35    13    28 ar  
    36    13    45 1   
    37    14    15 ar  
    38    14    28 ar  
    39    14    29 1   
    40    15    46 1   
    41    16    29 1   
    42    16    47 1   
    43    17    29 1   
    44    17    48 1   
    45    18    51 1   
    46    19    52 1   
    47    20    22 1   
    48    20    32 1   
    49    20    33 2   
    50    21    22 2   
    51    21    23 1   
    52    21    34 1   
    53    22    53 1   
    54    23    24 1   
    55    23    54 1   
    56    23    55 1   
    57    24    56 1   
    58    24    57 1   
    59    24    58 1   
    60    26    59 1   
    61    30    62 1   
    62    31    60 1   
    63    32    61 1   
    64    33    34 1   
    65    49    62 1   
    66    50    62 1   
@<TRIPOS>SUBSTRUCTURE
     1 AWO         1 TEMP              0 ****  ****    0 ROOT
