@<TRIPOS>MOLECULE
AWP
   39    40     1     0     0
SMALL
No Charge or Current Charge


@<TRIPOS>ATOM
      1 N1          -6.6270     0.3490    -0.3100 nb         1 AWP      -0.663000
      2 N3           2.1240    -0.4320     0.1700 ns         1 AWP      -0.517900
      3 C4          -4.7180    -1.1420    -0.4160 ca         1 AWP      -0.160500
      4 C5          -3.9800    -0.3160     0.4500 ca         1 AWP      -0.042300
      5 C6          -2.5560    -0.6700     0.8540 c3         1 AWP      -0.051100
      6 C7          -1.5180    -0.0680    -0.1100 c3         1 AWP       0.106000
      7 C8           0.9640     0.0230    -0.3920 c          1 AWP       0.643100
      8 C10          4.4660    -1.2270     0.1490 c6         1 AWP      -0.090900
      9 C13          5.3880     1.5810    -0.2280 c6         1 AWP      -0.071400
     10 C1          -4.6010     0.8520     0.9230 ca         1 AWP      -0.160500
     11 C2          -5.9160     1.1450     0.5220 ca         1 AWP       0.336400
     12 C3          -6.0290    -0.7760    -0.7680 ca         1 AWP       0.336400
     13 N2          -0.1480    -0.4070     0.2770 ns         1 AWP      -0.513900
     14 O1           0.9220     0.7310    -1.3830 o          1 AWP      -0.639100
     15 C9           3.4760    -0.1240    -0.3080 c6         1 AWP       0.120700
     16 C11          5.9120    -0.9170    -0.3110 c6         1 AWP      -0.071400
     17 C12          6.3760     0.4690     0.2010 c6         1 AWP      -0.077400
     18 C14          3.9450     1.2550     0.2300 c6         1 AWP      -0.090900
     19 H1           2.0330    -1.0160     0.9900 hn         1 AWP       0.300500
     20 H2          -4.2890    -2.0560    -0.8160 ha         1 AWP       0.122500
     21 H3          -2.3530    -0.3110     1.8700 hc         1 AWP       0.054700
     22 H4          -2.4320    -1.7600     0.8800 hc         1 AWP       0.054700
     23 H5          -1.7020    -0.4420    -1.1270 h1         1 AWP       0.057200
     24 H6          -1.6230     1.0260    -0.1230 h1         1 AWP       0.057200
     25 H8           4.1530    -2.1990    -0.2580 hc         1 AWP       0.044200
     26 H9           5.7060     2.5440     0.1950 hc         1 AWP       0.042700
     27 H10          5.4130     1.6970    -1.3200 hc         1 AWP       0.042700
     28 H11         -4.0790     1.5310     1.5920 ha         1 AWP       0.122500
     29 H12         -6.4160     2.0450     0.8780 h4         1 AWP       0.019600
     30 H13         -6.6180    -1.4010    -1.4370 h4         1 AWP       0.019600
     31 H14         -0.0050    -0.9930     1.0890 hn         1 AWP       0.293500
     32 H15          3.4610    -0.0940    -1.4080 h1         1 AWP       0.080700
     33 H16          6.5960    -1.6960     0.0520 hc         1 AWP       0.042700
     34 H17          5.9660    -0.9420    -1.4090 hc         1 AWP       0.042700
     35 H18          7.3810     0.6920    -0.1820 hc         1 AWP       0.039200
     36 H19          6.4570     0.4490     1.2970 hc         1 AWP       0.039200
     37 H20          3.8950     1.2650     1.3280 hc         1 AWP       0.044200
     38 H21          3.2640     2.0430    -0.1190 hc         1 AWP       0.044200
     39 H7           4.4420    -1.3240     1.2430 hc         1 AWP       0.044200
@<TRIPOS>BOND
     1     1    11 ar  
     2     1    12 ar  
     3     2     7 1   
     4     2    15 1   
     5     2    19 1   
     6     3     4 ar  
     7     3    12 ar  
     8     3    20 1   
     9     4     5 1   
    10     4    10 ar  
    11     5     6 1   
    12     5    21 1   
    13     5    22 1   
    14     6    13 1   
    15     6    23 1   
    16     6    24 1   
    17     7    13 1   
    18     7    14 2   
    19     8    15 1   
    20     8    16 1   
    21     8    25 1   
    22     8    39 1   
    23     9    17 1   
    24     9    18 1   
    25     9    26 1   
    26     9    27 1   
    27    10    11 ar  
    28    10    28 1   
    29    11    29 1   
    30    12    30 1   
    31    13    31 1   
    32    15    18 1   
    33    15    32 1   
    34    16    17 1   
    35    16    33 1   
    36    16    34 1   
    37    17    35 1   
    38    17    36 1   
    39    18    37 1   
    40    18    38 1   
@<TRIPOS>SUBSTRUCTURE
     1 AWP         1 TEMP              0 ****  ****    0 ROOT
