@<TRIPOS>MOLECULE
AWP
   39    40     1     0     0
SMALL
bcc


@<TRIPOS>ATOM
      1 N1          -6.4400     0.3690    -0.5400 nb         1 AWP      -0.663000
      2 N3           2.1270    -0.6110     0.1970 ns         1 AWP      -0.584900
      3 C4          -4.6960    -1.1980    -0.0620 ca         1 AWP      -0.243800
      4 C5          -3.8980    -0.2050     0.4960 ca         1 AWP      -0.042300
      5 C6          -2.5180    -0.5020     1.0010 c3         1 AWP      -0.051100
      6 C7          -1.4830    -0.2800    -0.1020 c3         1 AWP       0.106000
      7 C8           0.9540    -0.0780    -0.2300 c          1 AWP       0.777100
      8 C10          4.4560    -1.2210    -0.1600 c6         1 AWP      -0.090900
      9 C13          5.2320     1.6080     0.0910 c6         1 AWP      -0.071400
     10 C1          -4.4160     1.0860     0.5160 ca         1 AWP      -0.243800
     11 C2          -5.6780     1.3180    -0.0070 ca         1 AWP       0.401700
     12 C3          -5.9460    -0.8640    -0.5610 ca         1 AWP       0.401700
     13 N2          -0.1580    -0.5790     0.3860 ns         1 AWP      -0.580900
     14 O1           0.8910     0.7880    -1.0970 o          1 AWP      -0.639100
     15 C9           3.4150    -0.1080    -0.2370 c6         1 AWP       0.120700
     16 C11          5.8250    -0.7320    -0.6220 c6         1 AWP      -0.071400
     17 C12          6.2770     0.5000     0.1560 c6         1 AWP      -0.077400
     18 C14          3.8680     1.1140     0.5630 c6         1 AWP      -0.090900
     19 H1           2.1210    -1.1890     1.0230 hn         1 AWP       0.300500
     20 H2          -4.3540    -2.2250    -0.1080 ha         1 AWP       0.140500
     21 H3          -2.2780     0.1390     1.8520 hc         1 AWP       0.054700
     22 H4          -2.4690    -1.5370     1.3480 hc         1 AWP       0.054700
     23 H5          -1.7450    -0.8900    -0.9750 h1         1 AWP       0.057200
     24 H6          -1.5130     0.7610    -0.4220 h1         1 AWP       0.057200
     25 H8           4.1310    -2.0690    -0.7680 hc         1 AWP       0.044200
     26 H9           5.5480     2.4640     0.6930 hc         1 AWP       0.042700
     27 H10          5.1510     1.9710    -0.9400 hc         1 AWP       0.042700
     28 H11         -3.8490     1.9060     0.9380 ha         1 AWP       0.140500
     29 H12         -6.0920     2.3210     0.0060 h4         1 AWP       0.019600
     30 H13         -6.5770    -1.6320    -0.9960 h4         1 AWP       0.019600
     31 H14         -0.0610    -1.4550     0.8770 hn         1 AWP       0.293500
     32 H15          3.3110     0.1850    -1.2850 h1         1 AWP       0.080700
     33 H16          6.5570    -1.5350    -0.5200 hc         1 AWP       0.042700
     34 H17          5.7800    -0.4880    -1.6890 hc         1 AWP       0.042700
     35 H18          7.2340     0.8580    -0.2320 hc         1 AWP       0.039200
     36 H19          6.4500     0.2240     1.2020 hc         1 AWP       0.039200
     37 H20          3.9210     0.8430     1.6230 hc         1 AWP       0.044200
     38 H21          3.1220     1.9070     0.4760 hc         1 AWP       0.044200
     39 H7           4.5270    -1.5820     0.8740 hc         1 AWP       0.044200
@<TRIPOS>BOND
     1     1    11 ar  
     2     1    12 ar  
     3     2     7 1   
     4     2    15 1   
     5     2    19 1   
     6     3     4 ar  
     7     3    12 ar  
     8     3    20 1   
     9     4     5 1   
    10     4    10 ar  
    11     5     6 1   
    12     5    21 1   
    13     5    22 1   
    14     6    13 1   
    15     6    23 1   
    16     6    24 1   
    17     7    13 1   
    18     7    14 2   
    19     8    15 1   
    20     8    16 1   
    21     8    25 1   
    22     8    39 1   
    23     9    17 1   
    24     9    18 1   
    25     9    26 1   
    26     9    27 1   
    27    10    11 ar  
    28    10    28 1   
    29    11    29 1   
    30    12    30 1   
    31    13    31 1   
    32    15    18 1   
    33    15    32 1   
    34    16    17 1   
    35    16    33 1   
    36    16    34 1   
    37    17    35 1   
    38    17    36 1   
    39    18    37 1   
    40    18    38 1   
@<TRIPOS>SUBSTRUCTURE
     1 AWP         1 TEMP              0 ****  ****    0 ROOT
