@<TRIPOS>MOLECULE
AWQ
   29    29     1     0     0
SMALL
abcg2


@<TRIPOS>ATOM
      1 C4           2.1310    -1.1960     0.5830 cc         1 AWQ      -0.223300
      2 C3           0.3680    -2.1250    -0.4570 cc         1 AWQ      -0.214300
      3 C5           3.4930    -1.1580     1.1830 c3         1 AWQ       0.003200
      4 C2           0.0690    -0.7990    -0.2500 cd         1 AWQ      -0.075300
      5 C6           1.3070     1.2170     0.8330 c3         1 AWQ      -0.153100
      6 O1           1.6750     1.8440    -1.4560 o          1 AWQ      -0.745500
      7 N1           1.6190    -2.3460     0.0480 na         1 AWQ      -0.142000
      8 O2           1.8820     3.4010     0.1210 o          1 AWQ      -0.745500
      9 O3          -4.3890     0.6170     1.1800 o          1 AWQ      -0.759000
     10 O4          -3.6770     1.2150    -0.8420 o          1 AWQ      -0.759000
     11 C1           1.1890    -0.2080     0.4130 cd         1 AWQ      -0.039300
     12 C10         -2.2200    -0.0910     0.5360 c3         1 AWQ      -0.192400
     13 C11         -3.5420     0.6460     0.2600 c          1 AWQ       0.715000
     14 C7          -1.2060    -0.1010    -0.6050 c3         1 AWQ       0.001900
     15 C8          -0.4180    -3.2150    -1.0990 c3         1 AWQ      -0.001800
     16 C9           1.6570     2.2370    -0.2760 c          1 AWQ       0.725000
     17 H1           4.2780    -1.3120     0.4380 hc         1 AWQ       0.018367
     18 H2           3.6790    -0.1910     1.6480 hc         1 AWQ       0.018367
     19 H3           3.6270    -1.9210     1.9530 hc         1 AWQ       0.018367
     20 H4           0.3670     1.5520     1.2870 hc         1 AWQ       0.027200
     21 H5           2.0500     1.3190     1.6310 hc         1 AWQ       0.027200
     22 H6           2.0880    -3.2360     0.0480 hn         1 AWQ       0.300000
     23 H9          -1.7640     0.3510     1.4300 hc         1 AWQ       0.011700
     24 H10         -2.4530    -1.1220     0.8240 hc         1 AWQ       0.011700
     25 H11         -0.9800     0.9240    -0.9070 hc         1 AWQ       0.055700
     26 H12         -1.6620    -0.5710    -1.4810 hc         1 AWQ       0.055700
     27 H13          0.0760    -3.6100    -1.9910 hc         1 AWQ       0.021033
     28 H14         -0.5830    -4.0590    -0.4240 hc         1 AWQ       0.021033
     29 H15         -1.3970    -2.8490    -1.4050 hc         1 AWQ       0.021033
@<TRIPOS>BOND
     1     1     3 1   
     2     1     7 1   
     3     1    11 2   
     4     2     4 2   
     5     2     7 1   
     6     2    15 1   
     7     3    17 1   
     8     3    18 1   
     9     3    19 1   
    10     4    11 1   
    11     4    14 1   
    12     5    11 1   
    13     5    16 1   
    14     5    20 1   
    15     5    21 1   
    16     6    16 1   
    17     7    22 1   
    18     8    16 1   
    19     9    13 1   
    20    10    13 1   
    21    12    13 1   
    22    12    14 1   
    23    12    23 1   
    24    12    24 1   
    25    14    25 1   
    26    14    26 1   
    27    15    27 1   
    28    15    28 1   
    29    15    29 1   
@<TRIPOS>SUBSTRUCTURE
     1 AWQ         1 TEMP              0 ****  ****    0 ROOT
