@<TRIPOS>MOLECULE
AWQ
   29    29     1     0     0
SMALL
No Charge or Current Charge


@<TRIPOS>ATOM
      1 C4           2.1420    -1.1050     0.6570 cc         1 AWQ      -0.223300
      2 C3           0.3330    -2.1560    -0.2670 cc         1 AWQ      -0.214300
      3 C5           3.5130    -0.9450     1.2610 c3         1 AWQ       0.003200
      4 C2           0.0490    -0.8170    -0.1670 cd         1 AWQ      -0.075300
      5 C6           1.2940     1.3270     0.6890 c3         1 AWQ      -0.153100
      6 O1           1.1850     2.5040    -1.3770 o          1 AWQ      -0.745500
      7 N1           1.6170    -2.3240     0.2400 na         1 AWQ      -0.142000
      8 O2           3.1390     2.2050    -0.5340 o          1 AWQ      -0.745500
      9 O3          -4.4330    -0.1590    -0.4810 o          1 AWQ      -0.759000
     10 O4          -3.6910     1.7650     0.1310 o          1 AWQ      -0.759000
     11 C1           1.1780    -0.1590     0.4020 cd         1 AWQ      -0.039300
     12 C10         -2.2930    -0.1090     0.5460 c3         1 AWQ      -0.192400
     13 C11         -3.5850     0.5520     0.0370 c          1 AWQ       0.715000
     14 C7          -1.2470    -0.1610    -0.5930 c3         1 AWQ       0.001900
     15 C8          -0.5180    -3.2800    -0.7980 c3         1 AWQ      -0.001800
     16 C9           1.9210     2.1010    -0.4890 c          1 AWQ       0.725000
     17 H1           4.1480    -0.3170     0.6270 hc         1 AWQ       0.018367
     18 H2           3.4520    -0.4790     2.2510 hc         1 AWQ       0.018367
     19 H3           4.0110    -1.9150     1.3780 hc         1 AWQ       0.018367
     20 H4           0.2800     1.6970     0.8700 hc         1 AWQ       0.027200
     21 H5           1.9350     1.4270     1.5730 hc         1 AWQ       0.027200
     22 H6           2.1030    -3.2140     0.3010 hn         1 AWQ       0.300000
     23 H9          -1.8390     0.4900     1.3460 hc         1 AWQ       0.011700
     24 H10         -2.4780    -1.1520     0.8290 hc         1 AWQ       0.011700
     25 H11         -1.0570     0.8560    -0.9550 hc         1 AWQ       0.055700
     26 H12         -1.6740    -0.7030    -1.4450 hc         1 AWQ       0.055700
     27 H13         -0.7150    -3.1470    -1.8680 hc         1 AWQ       0.021033
     28 H14         -0.0250    -4.2510    -0.6650 hc         1 AWQ       0.021033
     29 H15         -1.4820    -3.3190    -0.2780 hc         1 AWQ       0.021033
@<TRIPOS>BOND
     1     1     3 1   
     2     1     7 1   
     3     1    11 2   
     4     2     4 2   
     5     2     7 1   
     6     2    15 1   
     7     3    17 1   
     8     3    18 1   
     9     3    19 1   
    10     4    11 1   
    11     4    14 1   
    12     5    11 1   
    13     5    16 1   
    14     5    20 1   
    15     5    21 1   
    16     6    16 1   
    17     7    22 1   
    18     8    16 1   
    19     9    13 1   
    20    10    13 1   
    21    12    13 1   
    22    12    14 1   
    23    12    23 1   
    24    12    24 1   
    25    14    25 1   
    26    14    26 1   
    27    15    27 1   
    28    15    28 1   
    29    15    29 1   
@<TRIPOS>SUBSTRUCTURE
     1 AWQ         1 TEMP              0 ****  ****    0 ROOT
