@<TRIPOS>MOLECULE
AWR
   42    44     1     0     0
SMALL
abcg2


@<TRIPOS>ATOM
      1 FAC         -2.8530    -0.9930    -1.7920 f          1 AWR      -0.108667
      2 CAX         -2.9060    -1.3430    -0.4950 c3         1 AWR       0.269700
      3 FAD         -3.1980    -0.2320     0.1990 f          1 AWR      -0.108667
      4 FAE         -3.9410    -2.1620    -0.3610 f          1 AWR      -0.108667
      5 CAR         -1.6170    -1.9780    -0.0380 ca         1 AWR       0.220300
      6 CAV         -0.3590    -1.3570    -0.0630 ca         1 AWR       0.001800
      7 NAO         -1.7650    -3.2220     0.3870 nb         1 AWR      -0.622000
      8 CAF         -0.7240    -3.9310     0.8010 ca         1 AWR       0.302900
      9 CAH          0.5650    -3.4310     0.8110 ca         1 AWR      -0.086000
     10 CAT          0.7470    -2.1310     0.3750 cp         1 AWR      -0.051000
     11 CAS          1.9120    -1.3100     0.2530 cp         1 AWR      -0.138000
     12 CAI          3.2620    -1.5060     0.5170 ca         1 AWR      -0.006000
     13 CAG          4.1560    -0.4780     0.2900 ca         1 AWR      -0.224000
     14 CAQ          3.7000     0.7590    -0.2040 ca         1 AWR       0.179100
     15 OAP          4.5100     1.8040    -0.4400 os         1 AWR      -0.341100
     16 CAA          5.8930     1.6800    -0.1650 c3         1 AWR       0.149900
     17 CAJ          2.3510     0.9720    -0.4780 ca         1 AWR      -0.186000
     18 CAU          1.4710    -0.0760    -0.2470 ca         1 AWR       0.039800
     19 NAW          0.1060    -0.1140    -0.4460 na         1 AWR      -0.083600
     20 CAN         -0.6230     1.0840    -0.8240 c3         1 AWR       0.074600
     21 CAM         -0.9190     1.9980     0.3580 c3         1 AWR      -0.101400
     22 CAL         -1.7440     3.2080    -0.0620 c3         1 AWR      -0.076400
     23 CAK         -2.0780     4.1150     1.1120 c3         1 AWR       0.150800
     24 NAB         -2.8350     5.2780     0.6730 n8         1 AWR      -0.996200
     25 HAF         -0.9290    -4.9410     1.1330 h4         1 AWR       0.029100
     26 HAH          1.3950    -4.0390     1.1480 ha         1 AWR       0.130000
     27 HAI          3.6200    -2.4530     0.9000 ha         1 AWR       0.118000
     28 HAG          5.2030    -0.6420     0.4980 ha         1 AWR       0.121000
     29 HAJ          2.0290     1.9330    -0.8560 ha         1 AWR       0.138000
     30 HAA1         6.3630     0.9060    -0.7760 h1         1 AWR       0.043700
     31 HAA2         6.3400     2.6400    -0.4110 h1         1 AWR       0.043700
     32 HAA3         6.0810     1.4640     0.8890 h1         1 AWR       0.043700
     33 HAN1        -0.0170     1.6110    -1.5640 h1         1 AWR       0.067200
     34 HAN2        -1.5310     0.8140    -1.3490 h1         1 AWR       0.067200
     35 HAM1        -1.4450     1.4360     1.1330 hc         1 AWR       0.054700
     36 HAM2         0.0210     2.3340     0.8050 hc         1 AWR       0.054700
     37 HAL1        -1.2050     3.7860    -0.8190 hc         1 AWR       0.048700
     38 HAL2        -2.6740     2.8700    -0.5310 hc         1 AWR       0.048700
     39 HAK1        -2.5930     3.5210     1.8810 h1         1 AWR       0.028700
     40 HAK2        -1.1490     4.4660     1.5690 h1         1 AWR       0.028700
     41 HAB1        -3.7370     4.9770     0.3220 hn         1 AWR       0.393000
     42 HAB2        -3.0410     5.8650     1.4720 hn         1 AWR       0.393000
@<TRIPOS>BOND
     1     1     2 1   
     2     2     3 1   
     3     2     4 1   
     4     2     5 1   
     5     5     6 ar  
     6     5     7 ar  
     7     6    10 ar  
     8     6    19 1   
     9     7     8 ar  
    10     8     9 ar  
    11     8    25 1   
    12     9    10 ar  
    13     9    26 1   
    14    10    11 1   
    15    11    12 ar  
    16    11    18 ar  
    17    12    13 ar  
    18    12    27 1   
    19    13    14 ar  
    20    13    28 1   
    21    14    15 1   
    22    14    17 ar  
    23    15    16 1   
    24    16    30 1   
    25    16    31 1   
    26    16    32 1   
    27    17    18 ar  
    28    17    29 1   
    29    18    19 1   
    30    19    20 1   
    31    20    21 1   
    32    20    33 1   
    33    20    34 1   
    34    21    22 1   
    35    21    35 1   
    36    21    36 1   
    37    22    23 1   
    38    22    37 1   
    39    22    38 1   
    40    23    24 1   
    41    23    39 1   
    42    23    40 1   
    43    24    41 1   
    44    24    42 1   
@<TRIPOS>SUBSTRUCTURE
     1 AWR         1 TEMP              0 ****  ****    0 ROOT
