@<TRIPOS>MOLECULE
AWR
   42    44     1     0     0
SMALL
No Charge or Current Charge


@<TRIPOS>ATOM
      1 FAC         -2.4530    -1.0850    -2.3550 f          1 AWR      -0.108667
      2 CAX         -2.8480    -1.3440    -1.0870 c3         1 AWR       0.269700
      3 FAD         -3.3900    -0.2070    -0.5920 f          1 AWR      -0.108667
      4 FAE         -3.8680    -2.2320    -1.1900 f          1 AWR      -0.108667
      5 CAR         -1.6840    -1.8630    -0.2120 ca         1 AWR       0.220300
      6 CAV         -0.3990    -1.2580    -0.1670 ca         1 AWR       0.001800
      7 NAO         -1.9160    -3.0010     0.5150 nb         1 AWR      -0.622000
      8 CAF         -0.9060    -3.5460     1.2490 ca         1 AWR       0.302900
      9 CAH          0.3970    -3.0150     1.2920 ca         1 AWR      -0.086000
     10 CAT          0.6410    -1.8430     0.5570 cp         1 AWR      -0.051000
     11 CAS          1.8620    -1.0850     0.3410 cp         1 AWR      -0.138000
     12 CAI          3.1750    -1.2810     0.8060 ca         1 AWR      -0.006000
     13 CAG          4.1760    -0.3760     0.3900 ca         1 AWR      -0.224000
     14 CAQ          3.8610     0.7040    -0.4810 ca         1 AWR       0.179100
     15 OAP          4.8110     1.6080    -0.9100 os         1 AWR      -0.341100
     16 CAA          6.1890     1.5230    -0.5040 c3         1 AWR       0.149900
     17 CAJ          2.5410     0.8830    -0.9400 ca         1 AWR      -0.186000
     18 CAU          1.5690    -0.0300    -0.5120 ca         1 AWR       0.039800
     19 NAW          0.1830    -0.1050    -0.7610 na         1 AWR      -0.083600
     20 CAN         -0.5700     1.1510    -0.9660 c3         1 AWR       0.074600
     21 CAM         -0.9840     1.8320     0.3590 c3         1 AWR      -0.101400
     22 CAL         -1.7920     3.1300     0.1400 c3         1 AWR      -0.076400
     23 CAK         -2.2030     3.8080     1.4630 c3         1 AWR       0.150800
     24 NAB         -2.9680     5.0450     1.2220 n8         1 AWR      -0.996200
     25 HAF         -1.1480    -4.4530     1.8040 h4         1 AWR       0.029100
     26 HAH          1.1790    -3.5010     1.8660 ha         1 AWR       0.130000
     27 HAI          3.4130    -2.1120     1.4670 ha         1 AWR       0.118000
     28 HAG          5.1880    -0.5290     0.7520 ha         1 AWR       0.121000
     29 HAJ          2.2970     1.7060    -1.6050 ha         1 AWR       0.138000
     30 HAA1         6.6320     0.5710    -0.8240 h1         1 AWR       0.043700
     31 HAA2         6.7690     2.3360    -0.9570 h1         1 AWR       0.043700
     32 HAA3         6.2810     1.6070     0.5860 h1         1 AWR       0.043700
     33 HAN1         0.0530     1.8470    -1.5390 h1         1 AWR       0.067200
     34 HAN2        -1.4520     0.9620    -1.5820 h1         1 AWR       0.067200
     35 HAM1        -1.5800     1.1330     0.9590 hc         1 AWR       0.054700
     36 HAM2        -0.0820     2.0600     0.9400 hc         1 AWR       0.054700
     37 HAL1        -1.1930     3.8310    -0.4540 hc         1 AWR       0.048700
     38 HAL2        -2.6920     2.8980    -0.4430 hc         1 AWR       0.048700
     39 HAK1        -2.8220     3.1200     2.0560 h1         1 AWR       0.028700
     40 HAK2        -1.3050     4.0580     2.0450 h1         1 AWR       0.028700
     41 HAB1        -3.8500     4.8060     0.7540 hn         1 AWR       0.393000
     42 HAB2        -3.2730     5.4310     2.1240 hn         1 AWR       0.393000
@<TRIPOS>BOND
     1     1     2 1   
     2     2     3 1   
     3     2     4 1   
     4     2     5 1   
     5     5     6 ar  
     6     5     7 ar  
     7     6    10 ar  
     8     6    19 1   
     9     7     8 ar  
    10     8     9 ar  
    11     8    25 1   
    12     9    10 ar  
    13     9    26 1   
    14    10    11 1   
    15    11    12 ar  
    16    11    18 ar  
    17    12    13 ar  
    18    12    27 1   
    19    13    14 ar  
    20    13    28 1   
    21    14    15 1   
    22    14    17 ar  
    23    15    16 1   
    24    16    30 1   
    25    16    31 1   
    26    16    32 1   
    27    17    18 ar  
    28    17    29 1   
    29    18    19 1   
    30    19    20 1   
    31    20    21 1   
    32    20    33 1   
    33    20    34 1   
    34    21    22 1   
    35    21    35 1   
    36    21    36 1   
    37    22    23 1   
    38    22    37 1   
    39    22    38 1   
    40    23    24 1   
    41    23    39 1   
    42    23    40 1   
    43    24    41 1   
    44    24    42 1   
@<TRIPOS>SUBSTRUCTURE
     1 AWR         1 TEMP              0 ****  ****    0 ROOT
