@<TRIPOS>MOLECULE
AWS
   32    33     1     0     0
SMALL
No Charge or Current Charge


@<TRIPOS>ATOM
      1 N1           2.5860     1.1720     0.4120 n3         1 AWS      -0.702600
      2 C4          -1.8700     1.8260    -0.0100 c          1 AWS       0.676300
      3 C5          -0.3840    -0.0520    -0.2420 ca         1 AWS       0.237100
      4 C6          -1.4250    -0.9660     0.0320 ca         1 AWS      -0.199800
      5 C7          -1.1300    -2.3450     0.0320 ca         1 AWS      -0.016000
      6 C8           0.1710    -2.7910    -0.2360 ca         1 AWS      -0.179000
      7 C10          0.9320    -0.4930    -0.5080 ca         1 AWS      -0.208300
      8 C13          3.4760     2.3100     0.0950 c3         1 AWS       0.148100
      9 C2          -2.7900    -0.4990     0.3120 cc         1 AWS       0.054600
     10 C3          -2.9460     0.8690     0.2790 cd         1 AWS      -0.345200
     11 O1          -2.0640     3.0320    -0.0320 o          1 AWS      -0.488000
     12 O2          -0.6450     1.2930    -0.2610 os         1 AWS      -0.328200
     13 C9           1.1970    -1.8790    -0.5040 ca         1 AWS       0.197100
     14 C11          2.0260     0.5360    -0.8050 c3         1 AWS       0.229100
     15 C12          3.2020     0.2240     1.3700 c3         1 AWS       0.148100
     16 O3           2.4440    -2.3730    -0.7550 oh         1 AWS      -0.529100
     17 H2          -1.9000    -3.0850     0.2380 ha         1 AWS       0.121000
     18 H3           0.3850    -3.8570    -0.2350 ha         1 AWS       0.136000
     19 H4           2.9580     3.0460    -0.5340 h1         1 AWS       0.032033
     20 H5           3.7980     2.8200     1.0130 h1         1 AWS       0.032033
     21 H6           4.3720     1.9680    -0.4410 h1         1 AWS       0.032033
     22 H7          -3.7340    -2.0250     1.5100 hc         1 AWS       0.053700
     23 H8          -4.8670    -0.8700     0.7970 hc         1 AWS       0.053700
     24 H9          -4.1220    -2.1090    -0.2220 hc         1 AWS       0.053700
     25 H10         -3.9040     1.3360     0.4690 ha         1 AWS       0.211000
     26 H11          1.5950     1.3100    -1.4550 h1         1 AWS       0.036700
     27 H12          2.8310     0.0760    -1.3910 h1         1 AWS       0.036700
     28 H13          4.0660    -0.2830     0.9200 h1         1 AWS       0.032033
     29 H14          3.5460     0.7540     2.2680 h1         1 AWS       0.032033
     30 H15          2.4800    -0.5370     1.6930 h1         1 AWS       0.032033
     31 H16          3.0620    -1.6210    -0.8500 ho         1 AWS       0.476000
     32 C1          -3.9400    -1.4260     0.6150 c3         1 AWS      -0.065900
@<TRIPOS>BOND
     1     1     8 1   
     2     1    14 1   
     3     1    15 1   
     4     2    10 1   
     5     2    11 2   
     6     2    12 1   
     7     3     4 ar  
     8     3     7 ar  
     9     3    12 1   
    10     4     5 ar  
    11     4     9 1   
    12     5     6 ar  
    13     5    17 1   
    14     6    13 ar  
    15     6    18 1   
    16     7    13 ar  
    17     7    14 1   
    18     8    19 1   
    19     8    20 1   
    20     8    21 1   
    21     9    10 2   
    22     9    32 1   
    23    10    25 1   
    24    13    16 1   
    25    14    26 1   
    26    14    27 1   
    27    15    28 1   
    28    15    29 1   
    29    15    30 1   
    30    16    31 1   
    31    22    32 1   
    32    23    32 1   
    33    24    32 1   
@<TRIPOS>SUBSTRUCTURE
     1 AWS         1 TEMP              0 ****  ****    0 ROOT
