@<TRIPOS>MOLECULE
AWS
   32    33     1     0     0
SMALL
abcg2


@<TRIPOS>ATOM
      1 N1           2.4650     1.1610     0.4330 n3         1 AWS      -0.702600
      2 C4          -1.7840     1.8000    -0.0050 c          1 AWS       0.676300
      3 C5          -0.3540    -0.1000    -0.2360 ca         1 AWS       0.237100
      4 C6          -1.3980    -0.9840     0.0380 ca         1 AWS      -0.199800
      5 C7          -1.1060    -2.3540     0.0290 ca         1 AWS      -0.016000
      6 C8           0.1610    -2.8030    -0.2460 ca         1 AWS      -0.179000
      7 C10          0.9470    -0.5150    -0.5250 ca         1 AWS      -0.208300
      8 C13          3.3080     2.2950     0.1270 c3         1 AWS       0.148100
      9 C2          -2.7040    -0.4400     0.3150 cc         1 AWS       0.054600
     10 C3          -2.8700     0.9020     0.2900 cd         1 AWS      -0.345200
     11 O1          -1.8440     3.0050    -0.0560 o          1 AWS      -0.488000
     12 O2          -0.5720     1.2320    -0.2480 os         1 AWS      -0.328200
     13 C9           1.1880    -1.8900    -0.5220 ca         1 AWS       0.197100
     14 C11          2.0170     0.5120    -0.7830 c3         1 AWS       0.229100
     15 C12          3.1240     0.2480     1.3410 c3         1 AWS       0.148100
     16 O3           2.3920    -2.4270    -0.7670 oh         1 AWS      -0.529100
     17 H2          -1.8850    -3.0750     0.2380 ha         1 AWS       0.121000
     18 H3           0.3800    -3.8620    -0.2510 ha         1 AWS       0.136000
     19 H4           2.7670     3.0100    -0.4950 h1         1 AWS       0.032033
     20 H5           3.5960     2.8030     1.0480 h1         1 AWS       0.032033
     21 H6           4.2330     2.0190    -0.4050 h1         1 AWS       0.032033
     22 H7          -3.6430    -1.9310     1.5270 hc         1 AWS       0.053700
     23 H8          -4.7640    -0.7950     0.7740 hc         1 AWS       0.053700
     24 H9          -4.0030    -2.0660    -0.1860 hc         1 AWS       0.053700
     25 H10         -3.8320     1.3530     0.4930 ha         1 AWS       0.211000
     26 H11          1.6190     1.2790    -1.4510 h1         1 AWS       0.036700
     27 H12          2.8630     0.0750    -1.3450 h1         1 AWS       0.036700
     28 H13          4.0330    -0.2090     0.9160 h1         1 AWS       0.032033
     29 H14          3.4180     0.7810     2.2450 h1         1 AWS       0.032033
     30 H15          2.4510    -0.5540     1.6450 h1         1 AWS       0.032033
     31 H16          3.0470    -1.7550    -0.9890 ho         1 AWS       0.476000
     32 C1          -3.8430    -1.3530     0.6230 c3         1 AWS      -0.065900
@<TRIPOS>BOND
     1     1     8 1   
     2     1    14 1   
     3     1    15 1   
     4     2    10 1   
     5     2    11 2   
     6     2    12 1   
     7     3     4 ar  
     8     3     7 ar  
     9     3    12 1   
    10     4     5 ar  
    11     4     9 1   
    12     5     6 ar  
    13     5    17 1   
    14     6    13 ar  
    15     6    18 1   
    16     7    13 ar  
    17     7    14 1   
    18     8    19 1   
    19     8    20 1   
    20     8    21 1   
    21     9    10 2   
    22     9    32 1   
    23    10    25 1   
    24    13    16 1   
    25    14    26 1   
    26    14    27 1   
    27    15    28 1   
    28    15    29 1   
    29    15    30 1   
    30    16    31 1   
    31    22    32 1   
    32    23    32 1   
    33    24    32 1   
@<TRIPOS>SUBSTRUCTURE
     1 AWS         1 TEMP              0 ****  ****    0 ROOT
