@<TRIPOS>MOLECULE
AWT
   52    55     1     0     0
SMALL
No Charge or Current Charge


@<TRIPOS>ATOM
      1 C4          -2.5090     0.9270     0.0120 ca         1 AWT      -0.149000
      2 C14         -7.1580     0.5450    -1.5570 c3         1 AWT       0.142900
      3 C5          -2.3950    -0.4810     0.1060 ca         1 AWT      -0.179000
      4 C6          -1.2110    -1.1310     0.5340 ca         1 AWT       0.413900
      5 C11         -4.6940    -0.7100    -0.6670 ca         1 AWT      -0.188000
      6 C8          -2.2320    -3.1640     0.2710 ca         1 AWT       0.185300
      7 C10         -3.4960    -1.3030    -0.2360 ca         1 AWT       0.075000
      8 C12         -4.8150     0.6940    -0.7640 ca         1 AWT       0.154100
      9 C3          -2.8080     3.8130    -0.2010 c3         1 AWT       0.144900
     10 O13         -5.9890     1.2970    -1.1880 os         1 AWT      -0.318100
     11 C1          -3.7180     1.5170    -0.4220 ca         1 AWT       0.105100
     12 O2          -3.8650     2.8920    -0.5260 os         1 AWT      -0.318100
     13 N9          -3.4020    -2.6450    -0.1500 nb         1 AWT      -0.222000
     14 C15         -2.1400    -4.6770     0.3550 c3         1 AWT      -0.132400
     15 N7          -1.1320    -2.4700     0.6130 nb         1 AWT      -0.301000
     16 N16         -0.0640    -0.4210     0.8860 nu         1 AWT      -0.927100
     17 C17          1.1860    -0.9360     1.4580 c3         1 AWT       0.289800
     18 C29          0.9900    -1.2840     2.9490 c3         1 AWT      -0.107100
     19 C18          2.2900     0.1010     1.2400 ca         1 AWT      -0.097300
     20 C19          3.3490    -0.1790     0.3510 ca         1 AWT      -0.089000
     21 C28          2.2630     1.3450     1.9020 ca         1 AWT      -0.115000
     22 C27          3.2820     2.2840     1.6840 ca         1 AWT      -0.107000
     23 C26          4.3350     1.9930     0.8010 ca         1 AWT      -0.107000
     24 C20          4.3810     0.7560     0.1210 ca         1 AWT       0.023000
     25 C21          5.4690     0.4260    -0.8110 cc         1 AWT      -0.160000
     26 C22          5.6880    -0.7350    -1.5730 cc         1 AWT       0.254900
     27 C25          6.5040     1.2730    -1.0880 cd         1 AWT      -0.156000
     28 N24          7.2970     0.5720    -2.0080 na         1 AWT      -0.000200
     29 N23          6.7790    -0.6900    -2.3100 nd         1 AWT      -0.519800
     30 H1          -1.6660     1.5550     0.2780 ha         1 AWT       0.112000
     31 H2          -6.9420    -0.1230    -2.4000 h1         1 AWT       0.044700
     32 H3          -7.5170    -0.0570    -0.7120 h1         1 AWT       0.044700
     33 H4          -7.9660     1.2220    -1.8590 h1         1 AWT       0.044700
     34 H5          -5.5240    -1.3600    -0.9240 ha         1 AWT       0.141000
     35 H6          -3.1440     4.8460    -0.3560 h1         1 AWT       0.040033
     36 H7          -2.5070     3.7080     0.8490 h1         1 AWT       0.040033
     37 H8          -1.9320     3.6420    -0.8400 h1         1 AWT       0.040033
     38 H9          -1.7340    -5.0930    -0.5740 hc         1 AWT       0.055033
     39 H10         -1.4870    -4.9930     1.1770 hc         1 AWT       0.055033
     40 H11         -3.1240    -5.1320     0.5240 hc         1 AWT       0.055033
     41 H12         -0.1080     0.5820     0.7360 hn         1 AWT       0.493000
     42 H13          1.4790    -1.8580     0.9330 h1         1 AWT       0.085700
     43 H14          0.6300    -0.4200     3.5190 hc         1 AWT       0.045367
     44 H15          0.2630    -2.0960     3.0670 hc         1 AWT       0.045367
     45 H16          1.9380    -1.6150     3.3880 hc         1 AWT       0.045367
     46 H17          3.3640    -1.1350    -0.1650 ha         1 AWT       0.118000
     47 H18          1.4520     1.5900     2.5850 ha         1 AWT       0.110000
     48 H19          3.2560     3.2420     2.1990 ha         1 AWT       0.112000
     49 H20          5.1080     2.7400     0.6530 ha         1 AWT       0.108000
     50 H21          5.0740    -1.6250    -1.6120 h4         1 AWT       0.040100
     51 H22          6.7500     2.2680    -0.7360 h4         1 AWT       0.155000
     52 H23          8.1610     0.9080    -2.4340 hn         1 AWT       0.373000
@<TRIPOS>BOND
     1     1     3 ar  
     2     1    11 ar  
     3     1    30 1   
     4     2    10 1   
     5     2    31 1   
     6     2    32 1   
     7     2    33 1   
     8     3     4 ar  
     9     3     7 ar  
    10     4    15 ar  
    11     4    16 1   
    12     5     7 ar  
    13     5     8 ar  
    14     5    34 1   
    15     6    13 ar  
    16     6    14 1   
    17     6    15 ar  
    18     7    13 ar  
    19     8    10 1   
    20     8    11 ar  
    21     9    12 1   
    22     9    35 1   
    23     9    36 1   
    24     9    37 1   
    25    11    12 1   
    26    14    38 1   
    27    14    39 1   
    28    14    40 1   
    29    16    17 1   
    30    16    41 1   
    31    17    18 1   
    32    17    19 1   
    33    17    42 1   
    34    18    43 1   
    35    18    44 1   
    36    18    45 1   
    37    19    20 ar  
    38    19    21 ar  
    39    20    24 ar  
    40    20    46 1   
    41    21    22 ar  
    42    21    47 1   
    43    22    23 ar  
    44    22    48 1   
    45    23    24 ar  
    46    23    49 1   
    47    24    25 1   
    48    25    26 1   
    49    25    27 2   
    50    26    29 2   
    51    26    50 1   
    52    27    28 1   
    53    27    51 1   
    54    28    29 1   
    55    28    52 1   
@<TRIPOS>SUBSTRUCTURE
     1 AWT         1 TEMP              0 ****  ****    0 ROOT
