@<TRIPOS>MOLECULE
AWT
   52    55     1     0     0
SMALL
bcc


@<TRIPOS>ATOM
      1 C4          -2.5890     1.0340     0.0680 ca         1 AWT      -0.167000
      2 C14         -7.0400     0.4320    -1.5590 c3         1 AWT       0.119700
      3 C5          -2.3800    -0.3620     0.1270 ca         1 AWT      -0.309600
      4 C6          -1.1630    -0.9890     0.5590 ca         1 AWT       0.742200
      5 C11         -4.6360    -0.7050    -0.6930 ca         1 AWT      -0.271300
      6 C8          -2.1050    -3.0430     0.1930 ca         1 AWT       0.711300
      7 C10         -3.4050    -1.2380    -0.2540 ca         1 AWT       0.468600
      8 C12         -4.8330     0.6510    -0.7500 ca         1 AWT       0.154100
      9 C3          -3.1100     3.7880    -0.0730 c3         1 AWT       0.121700
     10 O13         -5.9570     1.2500    -1.1550 os         1 AWT      -0.294900
     11 C1          -3.7870     1.5430    -0.3590 ca         1 AWT       0.105100
     12 O2          -4.0920     2.8460    -0.4530 os         1 AWT      -0.294900
     13 N9          -3.2600    -2.5900    -0.2180 nb         1 AWT      -0.748000
     14 C15         -1.9030    -4.5260     0.2450 c3         1 AWT      -0.132400
     15 N7          -1.0540    -2.3040     0.5860 nb         1 AWT      -0.827000
     16 N16         -0.1030    -0.2560     0.9320 nu         1 AWT      -0.871900
     17 C17          1.1290    -0.8240     1.4570 c3         1 AWT       0.289800
     18 C29          0.9950    -1.2120     2.9270 c3         1 AWT      -0.107100
     19 C18          2.2570     0.1540     1.2220 ca         1 AWT      -0.097300
     20 C19          3.2920    -0.1770     0.3570 ca         1 AWT      -0.107000
     21 C28          2.2800     1.3910     1.8610 ca         1 AWT      -0.133000
     22 C27          3.3240     2.2730     1.6240 ca         1 AWT      -0.125000
     23 C26          4.3530     1.9310     0.7600 ca         1 AWT      -0.125000
     24 C20          4.3550     0.6950     0.1130 ca         1 AWT       0.023000
     25 C21          5.4330     0.3170    -0.7990 cc         1 AWT      -0.225300
     26 C22          5.5470    -0.8470    -1.5930 cc         1 AWT       0.320200
     27 C25          6.5900     1.0170    -1.0880 cd         1 AWT      -0.123300
     28 N24          7.2730     0.2810    -1.9730 na         1 AWT      -0.000600
     29 N23          6.6620    -0.8520    -2.2960 nd         1 AWT      -0.519800
     30 H1          -1.8000     1.7150     0.3570 ha         1 AWT       0.130000
     31 H2          -6.7750    -0.1980    -2.4110 h1         1 AWT       0.044700
     32 H3          -7.3930    -0.2040    -0.7440 h1         1 AWT       0.044700
     33 H4          -7.8410     1.1070    -1.8530 h1         1 AWT       0.044700
     34 H5          -5.4100    -1.4030    -0.9820 ha         1 AWT       0.159000
     35 H6          -3.5530     4.7700    -0.2140 h1         1 AWT       0.040033
     36 H7          -2.8240     3.6760     0.9770 h1         1 AWT       0.040033
     37 H8          -2.2120     3.7110    -0.6930 h1         1 AWT       0.040033
     38 H9          -1.0820    -4.8220    -0.4090 hc         1 AWT       0.055033
     39 H10         -1.6340    -4.8400     1.2550 hc         1 AWT       0.055033
     40 H11         -2.8020    -5.0570    -0.0590 hc         1 AWT       0.055033
     41 H12         -0.1990     0.7440     0.9780 hn         1 AWT       0.437800
     42 H13          1.3390    -1.7280     0.8840 h1         1 AWT       0.085700
     43 H14          0.7370    -0.3520     3.5460 hc         1 AWT       0.045367
     44 H15          0.2160    -1.9650     3.0510 hc         1 AWT       0.045367
     45 H16          1.9320    -1.6300     3.2970 hc         1 AWT       0.045367
     46 H17          3.2650    -1.1440    -0.1330 ha         1 AWT       0.136000
     47 H18          1.4890     1.6730     2.5470 ha         1 AWT       0.128000
     48 H19          3.3400     3.2350     2.1190 ha         1 AWT       0.130000
     49 H20          5.1540     2.6390     0.5930 ha         1 AWT       0.126000
     50 H21          4.8560    -1.6710    -1.6780 h4         1 AWT       0.040100
     51 H22          6.9670     1.9620    -0.7320 h4         1 AWT       0.173000
     52 H23          8.1650     0.5060    -2.3850 hn         1 AWT       0.322700
@<TRIPOS>BOND
     1     1     3 ar  
     2     1    11 ar  
     3     1    30 1   
     4     2    10 1   
     5     2    31 1   
     6     2    32 1   
     7     2    33 1   
     8     3     4 ar  
     9     3     7 ar  
    10     4    15 ar  
    11     4    16 1   
    12     5     7 ar  
    13     5     8 ar  
    14     5    34 1   
    15     6    13 ar  
    16     6    14 1   
    17     6    15 ar  
    18     7    13 ar  
    19     8    10 1   
    20     8    11 ar  
    21     9    12 1   
    22     9    35 1   
    23     9    36 1   
    24     9    37 1   
    25    11    12 1   
    26    14    38 1   
    27    14    39 1   
    28    14    40 1   
    29    16    17 1   
    30    16    41 1   
    31    17    18 1   
    32    17    19 1   
    33    17    42 1   
    34    18    43 1   
    35    18    44 1   
    36    18    45 1   
    37    19    20 ar  
    38    19    21 ar  
    39    20    24 ar  
    40    20    46 1   
    41    21    22 ar  
    42    21    47 1   
    43    22    23 ar  
    44    22    48 1   
    45    23    24 ar  
    46    23    49 1   
    47    24    25 1   
    48    25    26 1   
    49    25    27 2   
    50    26    29 2   
    51    26    50 1   
    52    27    28 1   
    53    27    51 1   
    54    28    29 1   
    55    28    52 1   
@<TRIPOS>SUBSTRUCTURE
     1 AWT         1 TEMP              0 ****  ****    0 ROOT
