@<TRIPOS>MOLECULE
AWU
   57    59     1     0     0
SMALL
abcg2


@<TRIPOS>ATOM
      1 PA         -17.1710   -20.0240   -47.6900 p5         1 AWU       1.497800
      2 O1A        -18.6160   -20.2180   -47.9970 o          1 AWU      -0.851500
      3 O2A        -16.6410   -20.2460   -46.3130 o          1 AWU      -0.851500
      4 O3A        -16.8120   -18.5100   -48.1850 os         1 AWU      -0.738800
      5 PB         -15.4780   -17.5860   -48.2630 p5         1 AWU       1.490800
      6 O1B        -14.7350   -17.9220   -49.5140 o          1 AWU      -0.854500
      7 O2B        -14.7790   -17.5260   -46.9510 o          1 AWU      -0.854500
      8 O3B        -16.2010   -16.1270   -48.4370 os         1 AWU      -0.581400
      9 C5         -19.1530   -15.3610   -50.2800 c6         1 AWU       0.152300
     10 O5         -18.2810   -15.7000   -49.1970 os         1 AWU      -0.439000
     11 C4         -18.7690   -13.9920   -50.8690 c6         1 AWU       0.139300
     12 O4         -19.5460   -13.7180   -52.0350 oh         1 AWU      -0.731000
     13 C3         -17.3050   -13.9980   -51.2780 c6         1 AWU       0.177300
     14 O3         -16.9510   -12.6970   -51.7350 oh         1 AWU      -0.660000
     15 C2         -16.4150   -14.4650   -50.1290 c6         1 AWU       0.096300
     16 C1         -16.9290   -15.8010   -49.5920 c6         1 AWU       0.433300
     17 N1         -11.2590   -23.2190   -48.6530 n          1 AWU      -0.314000
     18 C9         -10.1570   -23.9290   -49.1160 c          1 AWU       0.619000
     19 O2         -10.2230   -24.7960   -49.9720 o          1 AWU      -0.573000
     20 N3          -8.9670   -23.5780   -48.5220 ns         1 AWU      -0.474500
     21 C8          -8.7490   -22.6100   -47.5430 c          1 AWU       0.591200
     22 O6          -7.6190   -22.4190   -47.1090 o          1 AWU      -0.565000
     23 C7          -9.9470   -21.9140   -47.1400 cc         1 AWU      -0.401200
     24 C6         -11.1260   -22.2400   -47.6990 cd         1 AWU       0.036600
     25 C1C        -12.5720   -23.5050   -49.2190 c5         1 AWU       0.296700
     26 C2C        -13.5990   -24.0490   -48.2180 c5         1 AWU       0.076300
     27 C3C        -14.9130   -23.6610   -48.8950 c5         1 AWU       0.153300
     28 C4C        -14.5710   -22.3120   -49.5200 c5         1 AWU       0.161300
     29 C5C        -14.9460   -21.1170   -48.6620 c3         1 AWU       0.191600
     30 C10        -20.5670   -15.3940   -49.7400 c3         1 AWU      -0.085100
     31 O7         -16.4040   -13.4800   -49.1040 oh         1 AWU      -0.737000
     32 O2C        -13.5270   -25.4450   -48.0220 oh         1 AWU      -0.721000
     33 O3C        -15.2420   -24.5770   -49.9340 oh         1 AWU      -0.720000
     34 O4C        -13.1330   -22.3000   -49.7080 os         1 AWU      -0.461000
     35 O5C        -16.3620   -20.9510   -48.7540 os         1 AWU      -0.617400
     36 H3         -19.0400   -16.1090   -51.0770 h1         1 AWU       0.043700
     37 H4         -18.9310   -13.2170   -50.1140 h1         1 AWU       0.060700
     38 H5         -20.4210   -13.4220   -51.7600 ho         1 AWU       0.488000
     39 H6         -17.1920   -14.7230   -52.0940 h1         1 AWU       0.039700
     40 H7         -16.0370   -12.7230   -52.0450 ho         1 AWU       0.432000
     41 H8         -15.3990   -14.6260   -50.5110 h1         1 AWU       0.043700
     42 H9         -16.8170   -16.5770   -50.3580 h2         1 AWU       0.050700
     43 H10         -8.1560   -24.0920   -48.8450 hn         1 AWU       0.326500
     44 H11         -9.8770   -21.1370   -46.3950 ha         1 AWU       0.230000
     45 H12        -12.0410   -21.7330   -47.4340 h4         1 AWU       0.246000
     46 H13        -12.4110   -24.2270   -50.0170 h2         1 AWU       0.102700
     47 H14        -13.5130   -23.5150   -47.2680 h1         1 AWU       0.064700
     48 H15        -15.7340   -23.5770   -48.1790 h1         1 AWU       0.098700
     49 H16        -15.0480   -22.2250   -50.4970 h1         1 AWU       0.105700
     50 H17        -14.6490   -21.2720   -47.6220 h1         1 AWU       0.059700
     51 H18        -14.4440   -20.2280   -49.0450 h1         1 AWU       0.059700
     52 H19        -20.7890   -16.3810   -49.3340 hc         1 AWU       0.039033
     53 H20        -20.6870   -14.6530   -48.9460 hc         1 AWU       0.039033
     54 H21        -21.2870   -15.1820   -50.5300 hc         1 AWU       0.039033
     55 H22        -16.0010   -13.8910   -48.3260 ho         1 AWU       0.537000
     56 H23        -12.8190   -25.6420   -47.3970 ho         1 AWU       0.506000
     57 H24        -15.2000   -25.4700   -49.5630 ho         1 AWU       0.505000
@<TRIPOS>BOND
     1     1     2 1   
     2     1     3 1   
     3     1     4 1   
     4     1    35 1   
     5     4     5 1   
     6     5     6 1   
     7     5     7 1   
     8     5     8 1   
     9     8    16 1   
    10     9    10 1   
    11     9    11 1   
    12     9    30 1   
    13     9    36 1   
    14    10    16 1   
    15    11    12 1   
    16    11    13 1   
    17    11    37 1   
    18    12    38 1   
    19    13    14 1   
    20    13    15 1   
    21    13    39 1   
    22    14    40 1   
    23    15    16 1   
    24    15    31 1   
    25    15    41 1   
    26    16    42 1   
    27    17    18 1   
    28    17    24 1   
    29    17    25 1   
    30    18    19 2   
    31    18    20 1   
    32    20    21 1   
    33    20    43 1   
    34    21    22 2   
    35    21    23 1   
    36    23    24 2   
    37    23    44 1   
    38    24    45 1   
    39    25    26 1   
    40    25    34 1   
    41    25    46 1   
    42    26    27 1   
    43    26    32 1   
    44    26    47 1   
    45    27    28 1   
    46    27    33 1   
    47    27    48 1   
    48    28    29 1   
    49    28    34 1   
    50    28    49 1   
    51    29    35 1   
    52    29    50 1   
    53    29    51 1   
    54    30    52 1   
    55    30    53 1   
    56    30    54 1   
    57    31    55 1   
    58    32    56 1   
    59    33    57 1   
@<TRIPOS>SUBSTRUCTURE
     1 AWU         1 TEMP              0 ****  ****    0 ROOT
