@<TRIPOS>MOLECULE
AWU
   57    59     1     0     0
SMALL
No Charge or Current Charge


@<TRIPOS>ATOM
      1 PA         -16.6330   -20.8720   -49.8190 p5         1 AWU       1.497800
      2 O1A        -16.5900   -21.3050   -51.2480 o          1 AWU      -0.851500
      3 O2A        -17.4810   -21.8130   -49.0310 o          1 AWU      -0.851500
      4 O3A        -17.1300   -19.3780   -49.7700 os         1 AWU      -0.738800
      5 PB         -17.1730   -18.6360   -48.3840 p5         1 AWU       1.490800
      6 O1B        -15.8730   -18.0010   -48.0310 o          1 AWU      -0.854500
      7 O2B        -17.7350   -19.4410   -47.2620 o          1 AWU      -0.854500
      8 O3B        -18.2570   -17.5360   -48.8210 os         1 AWU      -0.581400
      9 C5         -18.5830   -14.9300   -51.3000 c6         1 AWU       0.152300
     10 O5         -18.9070   -15.9900   -50.3790 os         1 AWU      -0.439000
     11 C4         -18.1360   -13.6580   -50.5110 c6         1 AWU       0.139300
     12 O4         -17.7660   -12.5840   -51.4070 oh         1 AWU      -0.731000
     13 C3         -16.9520   -14.0260   -49.5530 c6         1 AWU       0.177300
     14 O3         -16.6180   -12.9190   -48.6980 oh         1 AWU      -0.660000
     15 C2         -17.3030   -15.2580   -48.6640 c6         1 AWU       0.096300
     16 C1         -17.7870   -16.4360   -49.5920 c6         1 AWU       0.433300
     17 N1         -11.6120   -23.1660   -49.2060 n          1 AWU      -0.314000
     18 C9         -10.3600   -23.8030   -49.1320 c          1 AWU       0.619000
     19 O2         -10.1130   -24.6830   -48.3230 o          1 AWU      -0.573000
     20 N3          -9.4060   -23.3650   -49.9960 ns         1 AWU      -0.474500
     21 C8          -9.5040   -22.3730   -50.9160 c          1 AWU       0.591200
     22 O6          -8.5740   -22.0630   -51.6390 o          1 AWU      -0.565000
     23 C7         -10.8130   -21.7320   -50.9440 cc         1 AWU      -0.401200
     24 C6         -11.8380   -22.1280   -50.1130 cd         1 AWU       0.036600
     25 C1C        -12.7010   -23.6970   -48.3400 c5         1 AWU       0.296700
     26 C2C        -12.5130   -23.0640   -46.9150 c5         1 AWU       0.076300
     27 C3C        -13.9860   -23.0820   -46.4080 c5         1 AWU       0.153300
     28 C4C        -14.7260   -22.6340   -47.7110 c5         1 AWU       0.161300
     29 C5C        -14.7350   -21.0830   -47.9190 c3         1 AWU       0.191600
     30 C10        -19.8460   -14.7000   -52.1680 c3         1 AWU      -0.085100
     31 O7         -18.3080   -14.8920   -47.6780 oh         1 AWU      -0.737000
     32 O2C        -11.6360   -23.8190   -46.0510 oh         1 AWU      -0.721000
     33 O3C        -14.3570   -24.4010   -45.9740 oh         1 AWU      -0.720000
     34 O4C        -14.0160   -23.2980   -48.7990 os         1 AWU      -0.461000
     35 O5C        -15.1210   -20.7370   -49.2680 os         1 AWU      -0.617400
     36 H3         -17.7660   -15.2680   -51.9550 h1         1 AWU       0.043700
     37 H4         -18.9900   -13.3420   -49.8930 h1         1 AWU       0.060700
     38 H5         -17.7750   -11.7470   -50.8510 ho         1 AWU       0.488000
     39 H6         -16.0820   -14.2920   -50.1730 h1         1 AWU       0.039700
     40 H7         -17.1590   -13.0800   -47.8900 ho         1 AWU       0.432000
     41 H8         -16.3820   -15.5660   -48.1520 h1         1 AWU       0.043700
     42 H9         -16.9760   -16.7560   -50.2660 h2         1 AWU       0.050700
     43 H10         -8.5150   -23.8320   -49.9420 hn         1 AWU       0.326500
     44 H11        -10.9300   -20.9320   -51.6660 ha         1 AWU       0.230000
     45 H12        -12.8370   -21.6950   -50.1100 h4         1 AWU       0.246000
     46 H13        -12.6310   -24.7940   -48.3180 h2         1 AWU       0.102700
     47 H14        -12.1510   -22.0310   -47.0030 h1         1 AWU       0.064700
     48 H15        -14.1340   -22.3540   -45.5950 h1         1 AWU       0.098700
     49 H16        -15.7620   -22.9910   -47.6940 h1         1 AWU       0.105700
     50 H17        -15.4150   -20.6420   -47.1810 h1         1 AWU       0.059700
     51 H18        -13.7360   -20.6780   -47.7130 h1         1 AWU       0.059700
     52 H19        -20.1650   -15.6310   -52.6520 hc         1 AWU       0.039033
     53 H20        -20.6840   -14.3300   -51.5650 hc         1 AWU       0.039033
     54 H21        -19.6530   -13.9680   -52.9600 hc         1 AWU       0.039033
     55 H22        -18.9100   -15.6740   -47.6100 ho         1 AWU       0.537000
     56 H23        -10.8870   -24.1430   -46.6170 ho         1 AWU       0.506000
     57 H24        -13.5280   -24.7620   -45.5740 ho         1 AWU       0.505000
@<TRIPOS>BOND
     1     1     2 1   
     2     1     3 1   
     3     1     4 1   
     4     1    35 1   
     5     4     5 1   
     6     5     6 1   
     7     5     7 1   
     8     5     8 1   
     9     8    16 1   
    10     9    10 1   
    11     9    11 1   
    12     9    30 1   
    13     9    36 1   
    14    10    16 1   
    15    11    12 1   
    16    11    13 1   
    17    11    37 1   
    18    12    38 1   
    19    13    14 1   
    20    13    15 1   
    21    13    39 1   
    22    14    40 1   
    23    15    16 1   
    24    15    31 1   
    25    15    41 1   
    26    16    42 1   
    27    17    18 1   
    28    17    24 1   
    29    17    25 1   
    30    18    19 2   
    31    18    20 1   
    32    20    21 1   
    33    20    43 1   
    34    21    22 2   
    35    21    23 1   
    36    23    24 2   
    37    23    44 1   
    38    24    45 1   
    39    25    26 1   
    40    25    34 1   
    41    25    46 1   
    42    26    27 1   
    43    26    32 1   
    44    26    47 1   
    45    27    28 1   
    46    27    33 1   
    47    27    48 1   
    48    28    29 1   
    49    28    34 1   
    50    28    49 1   
    51    29    35 1   
    52    29    50 1   
    53    29    51 1   
    54    30    52 1   
    55    30    53 1   
    56    30    54 1   
    57    31    55 1   
    58    32    56 1   
    59    33    57 1   
@<TRIPOS>SUBSTRUCTURE
     1 AWU         1 TEMP              0 ****  ****    0 ROOT
