@<TRIPOS>MOLECULE
AWV
   37    39     1     0     0
SMALL
abcg2


@<TRIPOS>ATOM
      1 N1          -2.7820     2.0000    -0.2060 na         1 AWV      -0.226700
      2 C4          -2.8730     0.6820     0.1350 ca         1 AWV      -0.050200
      3 C5          -1.6800     0.0540    -0.2870 ca         1 AWV      -0.084800
      4 C6          -1.5080    -1.3140    -0.0450 ca         1 AWV      -0.045000
      5 C7          -0.8690     1.0630    -0.9030 cc         1 AWV      -0.141400
      6 C8          -1.5810     2.2250    -0.8210 cd         1 AWV      -0.164100
      7 C10          2.5340    -0.3180    -1.4580 c3         1 AWV       0.177300
      8 C13          3.6460    -0.4270     1.7120 c3         1 AWV      -0.069900
      9 C15          1.7140     0.8400     0.5260 c3         1 AWV       0.177300
     10 C1          -2.5180    -2.0130     0.5870 ca         1 AWV      -0.150000
     11 C2          -3.7000    -1.3700     0.9940 ca         1 AWV      -0.090000
     12 C3          -3.8920    -0.0190     0.7790 ca         1 AWV      -0.136000
     13 C9           0.4680     0.8690    -1.5400 c3         1 AWV       0.251000
     14 N2           1.3850     0.1210    -0.6940 n3         1 AWV      -0.730600
     15 C11          3.4910    -1.2530    -0.7260 c3         1 AWV      -0.072400
     16 C12          4.3310    -0.5750     0.3540 c3         1 AWV      -0.069900
     17 C14          2.1550    -0.0800     1.6610 c3         1 AWV      -0.072400
     18 H1          -3.4770     2.7040    -0.0230 hn         1 AWV       0.348000
     19 H2          -0.5870    -1.8020    -0.3360 ha         1 AWV       0.129000
     20 H3          -1.3160     3.2140    -1.1610 h4         1 AWV       0.209000
     21 H5           3.1190     0.5410    -1.8360 h1         1 AWV       0.027200
     22 H6           3.7630    -1.3520     2.2840 hc         1 AWV       0.033700
     23 H7           4.1780     0.3400     2.2810 hc         1 AWV       0.033700
     24 H8           2.4670     1.6290     0.3490 h1         1 AWV       0.027200
     25 H9           0.8080     1.3550     0.8480 h1         1 AWV       0.027200
     26 H10         -2.3990    -3.0710     0.7810 ha         1 AWV       0.109000
     27 H11         -4.4720    -1.9420     1.4910 ha         1 AWV       0.107000
     28 H12         -4.8000     0.4750     1.1020 ha         1 AWV       0.110000
     29 H13          0.3450     0.2990    -2.4670 h1         1 AWV       0.031200
     30 H14          0.8750     1.8510    -1.8410 h1         1 AWV       0.031200
     31 H16          2.9390    -2.1060    -0.3190 hc         1 AWV       0.044950
     32 H17          4.1620    -1.6640    -1.4840 hc         1 AWV       0.044950
     33 H18          4.6290     0.4110    -0.0180 hc         1 AWV       0.033700
     34 H19          5.2630    -1.1270     0.4960 hc         1 AWV       0.033700
     35 H20          1.5500    -0.9870     1.5870 hc         1 AWV       0.044950
     36 H21          1.8810     0.3810     2.6140 hc         1 AWV       0.044950
     37 H4           2.1580    -0.8400    -2.3430 h1         1 AWV       0.027200
@<TRIPOS>BOND
     1     1     2 1   
     2     1     6 1   
     3     1    18 1   
     4     2     3 ar  
     5     2    12 ar  
     6     3     4 ar  
     7     3     5 1   
     8     4    10 ar  
     9     4    19 1   
    10     5     6 2   
    11     5    13 1   
    12     6    20 1   
    13     7    14 1   
    14     7    15 1   
    15     7    21 1   
    16     7    37 1   
    17     8    16 1   
    18     8    17 1   
    19     8    22 1   
    20     8    23 1   
    21     9    14 1   
    22     9    17 1   
    23     9    24 1   
    24     9    25 1   
    25    10    11 ar  
    26    10    26 1   
    27    11    12 ar  
    28    11    27 1   
    29    12    28 1   
    30    13    14 1   
    31    13    29 1   
    32    13    30 1   
    33    15    16 1   
    34    15    31 1   
    35    15    32 1   
    36    16    33 1   
    37    16    34 1   
    38    17    35 1   
    39    17    36 1   
@<TRIPOS>SUBSTRUCTURE
     1 AWV         1 TEMP              0 ****  ****    0 ROOT
