@<TRIPOS>MOLECULE
AWV
   37    39     1     0     0
SMALL
No Charge or Current Charge


@<TRIPOS>ATOM
      1 N1          -2.7940     2.0690    -0.0380 na         1 AWV      -0.226700
      2 C4          -2.9250     0.7060     0.1540 ca         1 AWV      -0.050200
      3 C5          -1.8310     0.0430    -0.3270 ca         1 AWV      -0.084800
      4 C6          -1.7160    -1.3530    -0.2460 ca         1 AWV      -0.045000
      5 C7          -0.9270     1.0180    -0.8690 cc         1 AWV      -0.141400
      6 C8          -1.5430     2.2530    -0.6780 cd         1 AWV      -0.164100
      7 C10          2.5460    -0.4430    -1.4190 c3         1 AWV       0.177300
      8 C13          3.8510    -0.2150     1.6910 c3         1 AWV      -0.069900
      9 C15          1.7190     0.8290     0.5790 c3         1 AWV       0.177300
     10 C1          -2.7760    -2.0690     0.3510 ca         1 AWV      -0.150000
     11 C2          -3.9100    -1.3850     0.8480 ca         1 AWV      -0.090000
     12 C3          -3.9920     0.0210     0.7520 ca         1 AWV      -0.136000
     13 C9           0.4120     0.7500    -1.5190 c3         1 AWV       0.251000
     14 N2           1.3790     0.0450    -0.6400 n3         1 AWV      -0.730600
     15 C11          3.5820    -1.3110    -0.6650 c3         1 AWV      -0.072400
     16 C12          4.4750    -0.5090     0.3080 c3         1 AWV      -0.069900
     17 C14          2.3180    -0.0170     1.7240 c3         1 AWV      -0.072400
     18 H1          -3.4600     2.7900     0.2250 hn         1 AWV       0.348000
     19 H2          -0.8360    -1.8650    -0.6280 ha         1 AWV       0.129000
     20 H3          -1.1830     3.2420    -0.9510 h4         1 AWV       0.209000
     21 H5           3.0730     0.4100    -1.8690 h1         1 AWV       0.027200
     22 H6           4.1000    -1.0370     2.3730 hc         1 AWV       0.033700
     23 H7           4.3350     0.6790     2.1040 hc         1 AWV       0.033700
     24 H8           2.3970     1.6590     0.3350 h1         1 AWV       0.027200
     25 H9           0.8060     1.2820     0.9860 h1         1 AWV       0.027200
     26 H10         -2.7180    -3.1530     0.4300 ha         1 AWV       0.109000
     27 H11         -4.7230    -1.9440     1.3070 ha         1 AWV       0.107000
     28 H12         -4.8590     0.5560     1.1330 ha         1 AWV       0.110000
     29 H13          0.2210     0.1490    -2.4190 h1         1 AWV       0.031200
     30 H14          0.8390     1.7040    -1.8570 h1         1 AWV       0.031200
     31 H16          3.0840    -2.1370    -0.1450 hc         1 AWV       0.044950
     32 H17          4.2350    -1.7700    -1.4180 hc         1 AWV       0.044950
     33 H18          4.7570     0.4380    -0.1680 hc         1 AWV       0.033700
     34 H19          5.4120    -1.0570     0.4660 hc         1 AWV       0.033700
     35 H20          1.8200    -0.9950     1.7410 hc         1 AWV       0.044950
     36 H21          2.0630     0.4630     2.6760 hc         1 AWV       0.044950
     37 H4           2.1750    -1.0520    -2.2540 h1         1 AWV       0.027200
@<TRIPOS>BOND
     1     1     2 1   
     2     1     6 1   
     3     1    18 1   
     4     2     3 ar  
     5     2    12 ar  
     6     3     4 ar  
     7     3     5 1   
     8     4    10 ar  
     9     4    19 1   
    10     5     6 2   
    11     5    13 1   
    12     6    20 1   
    13     7    14 1   
    14     7    15 1   
    15     7    21 1   
    16     7    37 1   
    17     8    16 1   
    18     8    17 1   
    19     8    22 1   
    20     8    23 1   
    21     9    14 1   
    22     9    17 1   
    23     9    24 1   
    24     9    25 1   
    25    10    11 ar  
    26    10    26 1   
    27    11    12 ar  
    28    11    27 1   
    29    12    28 1   
    30    13    14 1   
    31    13    29 1   
    32    13    30 1   
    33    15    16 1   
    34    15    31 1   
    35    15    32 1   
    36    16    33 1   
    37    16    34 1   
    38    17    35 1   
    39    17    36 1   
@<TRIPOS>SUBSTRUCTURE
     1 AWV         1 TEMP              0 ****  ****    0 ROOT
