@<TRIPOS>MOLECULE
AWW
   58    61     1     0     0
SMALL
abcg2


@<TRIPOS>ATOM
      1 C4           4.2390    -0.6460     0.0920 ca         1 AWW       0.163300
      2 C6           3.7880    -2.8680     0.1560 ca         1 AWW       0.185300
      3 C7           4.2580    -4.2820     0.3020 c3         1 AWW      -0.134400
      4 C13         -1.5820    -1.8880     0.0810 cc         1 AWW      -0.235300
      5 C15         -3.3880    -1.4490     1.4720 cd         1 AWW      -0.129000
      6 C20         -7.4950    -0.2030     0.2870 ca         1 AWW      -0.110000
      7 C21         -7.5770     1.1110    -0.1480 ca         1 AWW      -0.106000
      8 C22         -6.4190     1.8270    -0.4210 ca         1 AWW      -0.085000
      9 C24         -3.9160     2.0570    -0.5390 c3         1 AWW       0.204900
     10 C26          5.2930     0.4160     0.1730 c6         1 AWW      -0.117500
     11 C29          6.6880     2.8250     0.9540 c3         1 AWW       0.143900
     12 O28          5.6820     2.8220    -0.0450 os         1 AWW      -0.338100
     13 C27          4.7760     1.8090     0.0030 c2         1 AWW       0.052900
     14 C1           3.4830     2.0910    -0.1590 c2         1 AWW       0.019900
     15 O30          3.0590     3.3800    -0.3330 os         1 AWW      -0.348100
     16 C31          2.7390     4.0490     0.8760 c3         1 AWW       0.149900
     17 C2           2.4060     1.0580    -0.2280 c6         1 AWW       0.025100
     18 C3           2.9140    -0.3420    -0.0880 ca         1 AWW      -0.251300
     19 N5           4.6890    -1.9070     0.2140 nb         1 AWW      -0.231000
     20 N8           2.4810    -2.6960    -0.0190 nb         1 AWW      -0.278000
     21 C9           2.0320    -1.4510    -0.1380 ca         1 AWW       0.399900
     22 N10          0.7090    -1.2660    -0.2930 nu         1 AWW      -0.932100
     23 C11         -0.2480    -2.3550    -0.4180 c3         1 AWW       0.314800
     24 C12         -0.3000    -2.9050    -1.8400 c3         1 AWW      -0.110100
     25 S17         -2.6310    -0.9410    -0.9060 ss         1 AWW       0.191000
     26 C14         -2.1240    -2.0750     1.3170 cd         1 AWW      -0.107000
     27 C16         -3.7980    -0.7770     0.3560 cc         1 AWW      -0.149000
     28 C18         -5.0800    -0.0840     0.1560 ca         1 AWW      -0.020000
     29 C19         -6.2500    -0.7930     0.4310 ca         1 AWW      -0.093000
     30 C23         -5.1620     1.2520    -0.2680 ca         1 AWW      -0.068300
     31 O25         -4.2230     3.4280    -0.5310 oh         1 AWW      -0.658000
     32 H1           3.8810    -4.7130     1.2310 hc         1 AWW       0.057700
     33 H2           3.8800    -4.9000    -0.5120 hc         1 AWW       0.057700
     34 H3           5.3440    -4.3360     0.3140 hc         1 AWW       0.057700
     35 H4          -3.9730    -1.4850     2.3810 ha         1 AWW       0.140000
     36 H5          -8.3910    -0.7680     0.5060 ha         1 AWW       0.116000
     37 H6          -8.5420     1.5840    -0.2760 ha         1 AWW       0.115000
     38 H7          -6.5030     2.8540    -0.7470 ha         1 AWW       0.132000
     39 H8          -3.1580     1.8120     0.2170 h1         1 AWW       0.030700
     40 H9          -3.4940     1.7550    -1.5070 h1         1 AWW       0.030700
     41 H10          5.8040     0.3060     1.1370 hc         1 AWW       0.081200
     42 H11          6.0600     0.2090    -0.5830 hc         1 AWW       0.081200
     43 H12          7.3840     1.9890     0.8510 h1         1 AWW       0.036700
     44 H13          7.2460     3.7510     0.8330 h1         1 AWW       0.036700
     45 H14          6.2610     2.8040     1.9600 h1         1 AWW       0.036700
     46 H15          3.6080     4.1380     1.5340 h1         1 AWW       0.031367
     47 H16          2.3960     5.0480     0.6140 h1         1 AWW       0.031367
     48 H17          1.9380     3.5430     1.4260 h1         1 AWW       0.031367
     49 H18          1.6590     1.2610     0.5510 hc         1 AWW       0.055700
     50 H19          1.8710     1.1690    -1.1800 hc         1 AWW       0.055700
     51 H20          0.3730    -0.3360    -0.4850 hn         1 AWW       0.496000
     52 H21          0.0810    -3.1540     0.2490 h1         1 AWW       0.091700
     53 H22         -0.5860    -2.1320    -2.5570 hc         1 AWW       0.048700
     54 H23          0.6790    -3.2850    -2.1290 hc         1 AWW       0.048700
     55 H24         -1.0190    -3.7220    -1.9120 hc         1 AWW       0.048700
     56 H25         -1.6300    -2.6400     2.0950 ha         1 AWW       0.139000
     57 H26         -6.1750    -1.8250     0.7510 ha         1 AWW       0.117000
     58 H27         -3.4450     3.9050    -0.8320 ho         1 AWW       0.447000
@<TRIPOS>BOND
     1     1    10 1   
     2     1    18 ar  
     3     1    19 ar  
     4     2     3 1   
     5     2    19 ar  
     6     2    20 ar  
     7     3    32 1   
     8     3    33 1   
     9     3    34 1   
    10     4    23 1   
    11     4    25 1   
    12     4    26 2   
    13     5    26 1   
    14     5    27 2   
    15     5    35 1   
    16     6     7 ar  
    17     6    29 ar  
    18     6    36 1   
    19     7     8 ar  
    20     7    37 1   
    21     8    30 ar  
    22     8    38 1   
    23     9    30 1   
    24     9    31 1   
    25     9    39 1   
    26     9    40 1   
    27    10    13 1   
    28    10    41 1   
    29    10    42 1   
    30    11    12 1   
    31    11    43 1   
    32    11    44 1   
    33    11    45 1   
    34    12    13 1   
    35    13    14 2   
    36    14    15 1   
    37    14    17 1   
    38    15    16 1   
    39    16    46 1   
    40    16    47 1   
    41    16    48 1   
    42    17    18 1   
    43    17    49 1   
    44    17    50 1   
    45    18    21 ar  
    46    20    21 ar  
    47    21    22 1   
    48    22    23 1   
    49    22    51 1   
    50    23    24 1   
    51    23    52 1   
    52    24    53 1   
    53    24    54 1   
    54    24    55 1   
    55    25    27 1   
    56    26    56 1   
    57    27    28 1   
    58    28    29 ar  
    59    28    30 ar  
    60    29    57 1   
    61    31    58 1   
@<TRIPOS>SUBSTRUCTURE
     1 AWW         1 TEMP              0 ****  ****    0 ROOT
