@<TRIPOS>MOLECULE
AWW
   58    61     1     0     0
SMALL
No Charge or Current Charge


@<TRIPOS>ATOM
      1 C4           4.3370    -0.6430     0.2150 ca         1 AWW       0.163300
      2 C6           3.9800    -2.9090     0.1360 ca         1 AWW       0.185300
      3 C7           4.5570    -4.3130     0.1640 c3         1 AWW      -0.134400
      4 C13         -1.5700    -1.9220     0.1360 cc         1 AWW      -0.235300
      5 C15         -3.4990    -1.4530     1.3880 cd         1 AWW      -0.129000
      6 C20         -7.4460     0.0060     0.0860 ca         1 AWW      -0.110000
      7 C21         -7.4670     1.3790    -0.1940 ca         1 AWW      -0.106000
      8 C22         -6.2620     2.0920    -0.3020 ca         1 AWW      -0.085000
      9 C24         -3.7160     2.2500    -0.2280 c3         1 AWW       0.204900
     10 C26          5.3420     0.4940     0.3380 c6         1 AWW      -0.117500
     11 C29          7.0000     2.8200     0.6420 c3         1 AWW       0.143900
     12 O28          5.6350     2.9670     0.2040 os         1 AWW      -0.338100
     13 C27          4.7540     1.9020     0.2070 c2         1 AWW       0.052900
     14 C1           3.4290     2.1330     0.0870 c2         1 AWW       0.019900
     15 O30          2.9720     3.4330    -0.0380 os         1 AWW      -0.348100
     16 C31          1.5800     3.7650     0.1340 c3         1 AWW       0.149900
     17 C2           2.3880     1.0040     0.0690 c6         1 AWW       0.025100
     18 C3           2.9560    -0.4180     0.0920 ca         1 AWW      -0.251300
     19 N5           4.8540    -1.8870     0.2380 nb         1 AWW      -0.231000
     20 N8           2.6440    -2.8010     0.0170 nb         1 AWW      -0.278000
     21 C9           2.1340    -1.5570    -0.0070 ca         1 AWW       0.399900
     22 N10          0.7530    -1.4370    -0.1210 nu         1 AWW      -0.932100
     23 C11         -0.2390    -2.5010    -0.2600 c3         1 AWW       0.314800
     24 C12         -0.2310    -3.0730    -1.6920 c3         1 AWW      -0.110100
     25 S17         -2.4750    -0.8400    -0.9300 ss         1 AWW       0.191000
     26 C14         -2.2560    -2.1400     1.3100 cd         1 AWW      -0.107000
     27 C16         -3.7520    -0.7000     0.2720 cc         1 AWW      -0.149000
     28 C18         -5.0010     0.0480     0.1320 ca         1 AWW      -0.020000
     29 C19         -6.2180    -0.6540     0.2450 ca         1 AWW      -0.093000
     30 C23         -5.0180     1.4430    -0.1280 ca         1 AWW      -0.068300
     31 O25         -3.8710     3.5810     0.2880 oh         1 AWW      -0.658000
     32 H1           4.5820    -4.7020     1.1880 hc         1 AWW       0.057700
     33 H2           3.9580    -5.0030    -0.4420 hc         1 AWW       0.057700
     34 H3           5.5800    -4.3350    -0.2290 hc         1 AWW       0.057700
     35 H4          -4.1690    -1.5180     2.2390 ha         1 AWW       0.140000
     36 H5          -8.3780    -0.5480     0.1700 ha         1 AWW       0.116000
     37 H6          -8.4170     1.8940    -0.3250 ha         1 AWW       0.115000
     38 H7          -6.2980     3.1570    -0.5180 ha         1 AWW       0.132000
     39 H8          -2.9210     1.7410     0.3310 h1         1 AWW       0.030700
     40 H9          -3.4060     2.2870    -1.2810 h1         1 AWW       0.030700
     41 H10          5.8500     0.3990     1.3070 hc         1 AWW       0.081200
     42 H11          6.1100     0.3550    -0.4350 hc         1 AWW       0.081200
     43 H12          7.5530     2.1270    -0.0050 h1         1 AWW       0.036700
     44 H13          7.5130     3.7890     0.6080 h1         1 AWW       0.036700
     45 H14          7.0420     2.4520     1.6750 h1         1 AWW       0.036700
     46 H15          1.2260     3.4610     1.1280 h1         1 AWW       0.031367
     47 H16          1.4380     4.8490     0.0420 h1         1 AWW       0.031367
     48 H17          0.9590     3.2800    -0.6290 h1         1 AWW       0.031367
     49 H18          1.7150     1.1230     0.9290 hc         1 AWW       0.055700
     50 H19          1.7710     1.1130    -0.8340 hc         1 AWW       0.055700
     51 H20          0.3850    -0.4960    -0.0220 hn         1 AWW       0.496000
     52 H21         -0.0110    -3.3200     0.4390 h1         1 AWW       0.091700
     53 H22         -0.3860    -2.2850    -2.4370 hc         1 AWW       0.048700
     54 H23          0.7250    -3.5630    -1.9090 hc         1 AWW       0.048700
     55 H24         -1.0260    -3.8190    -1.8060 hc         1 AWW       0.048700
     56 H25         -1.8850    -2.7800     2.1060 ha         1 AWW       0.139000
     57 H26         -6.2100    -1.7230     0.4460 ha         1 AWW       0.117000
     58 H27         -3.0000     4.0260     0.1900 ho         1 AWW       0.447000
@<TRIPOS>BOND
     1     1    10 1   
     2     1    18 ar  
     3     1    19 ar  
     4     2     3 1   
     5     2    19 ar  
     6     2    20 ar  
     7     3    32 1   
     8     3    33 1   
     9     3    34 1   
    10     4    23 1   
    11     4    25 1   
    12     4    26 2   
    13     5    26 1   
    14     5    27 2   
    15     5    35 1   
    16     6     7 ar  
    17     6    29 ar  
    18     6    36 1   
    19     7     8 ar  
    20     7    37 1   
    21     8    30 ar  
    22     8    38 1   
    23     9    30 1   
    24     9    31 1   
    25     9    39 1   
    26     9    40 1   
    27    10    13 1   
    28    10    41 1   
    29    10    42 1   
    30    11    12 1   
    31    11    43 1   
    32    11    44 1   
    33    11    45 1   
    34    12    13 1   
    35    13    14 2   
    36    14    15 1   
    37    14    17 1   
    38    15    16 1   
    39    16    46 1   
    40    16    47 1   
    41    16    48 1   
    42    17    18 1   
    43    17    49 1   
    44    17    50 1   
    45    18    21 ar  
    46    20    21 ar  
    47    21    22 1   
    48    22    23 1   
    49    22    51 1   
    50    23    24 1   
    51    23    52 1   
    52    24    53 1   
    53    24    54 1   
    54    24    55 1   
    55    25    27 1   
    56    26    56 1   
    57    27    28 1   
    58    28    29 ar  
    59    28    30 ar  
    60    29    57 1   
    61    31    58 1   
@<TRIPOS>SUBSTRUCTURE
     1 AWW         1 TEMP              0 ****  ****    0 ROOT
