@<TRIPOS>MOLECULE
AWX
   56    60     1     0     0
SMALL
bcc


@<TRIPOS>ATOM
      1 C1          -7.6700     0.6660    -2.4670 c2         1 AWX      -0.127000
      2 C2          -7.0500     1.1490    -1.3970 ce         1 AWX      -0.254200
      3 C3          -6.1270     0.3110    -0.5870 c          1 AWX       0.671300
      4 O4          -5.8760    -0.8550    -0.8640 o          1 AWX      -0.610100
      5 N5          -5.6060     0.9450     0.4790 ns         1 AWX      -0.570900
      6 C6          -4.6790     0.3380     1.4080 c3         1 AWX       0.147300
      7 C7          -3.2400     0.6600     1.0880 ca         1 AWX      -0.104300
      8 C8          -2.5280     1.5600     1.8730 ca         1 AWX      -0.109000
      9 C9          -1.2060     1.8650     1.5880 ca         1 AWX      -0.111000
     10 C10         -0.5970     1.2700     0.4950 ca         1 AWX      -0.005200
     11 C11         -1.2940     0.3860    -0.3170 ca         1 AWX      -0.111000
     12 C12         -2.6080     0.0790    -0.0090 ca         1 AWX      -0.109000
     13 N13          0.7620     1.5760     0.2150 na         1 AWX       0.208300
     14 C14          1.7740     0.6990    -0.0230 cc         1 AWX      -0.001100
     15 C15          2.8840     1.4920    -0.2800 cd         1 AWX      -0.299200
     16 C16          2.4150     2.8050    -0.1440 cd         1 AWX       0.263800
     17 N17          1.1330     2.8460     0.1580 nc         1 AWX      -0.431800
     18 C18          3.3010     3.9490    -0.2920 c          1 AWX       0.618000
     19 N19          4.5710     3.5460    -0.5510 ns         1 AWX      -0.305900
     20 N20          5.0680     2.2920    -0.7010 nc         1 AWX      -0.533300
     21 C21          4.2790     1.2790    -0.5620 cd         1 AWX       0.630800
     22 O22          2.9750     5.1240    -0.1930 o          1 AWX      -0.606500
     23 N23          4.8030     0.0160    -0.6170 nv         1 AWX      -0.874800
     24 C24          1.6130    -0.7370     0.0540 cc         1 AWX       0.069900
     25 C25          1.0990    -1.5430     1.0150 cd         1 AWX      -0.068400
     26 C26          1.2050    -2.8750     0.4830 ca         1 AWX      -0.116800
     27 C27          1.8010    -2.7460    -0.7680 ca         1 AWX       0.066100
     28 O28          2.0490    -1.4440    -1.0340 os         1 AWX      -0.174200
     29 C29          0.5400    -1.1680     2.3400 c3         1 AWX      -0.031900
     30 C30          0.8590    -4.1430     0.9540 ca         1 AWX      -0.071000
     31 C31          1.1220    -5.2490     0.1620 ca         1 AWX      -0.093300
     32 C32          1.7300    -5.0720    -1.0960 ca         1 AWX      -0.100000
     33 C33          2.0820    -3.8260    -1.5860 ca         1 AWX      -0.124000
     34 C34          0.7860    -6.6360     0.6330 c3         1 AWX      -0.045800
     35 H1          -8.3410     1.2810    -3.0500 ha         1 AWX       0.127000
     36 H2          -7.5290    -0.3560    -2.7940 ha         1 AWX       0.127000
     37 H4          -7.2070     2.1770    -1.0900 ha         1 AWX       0.126000
     38 H6          -5.8280     1.9170     0.6210 hn         1 AWX       0.316500
     39 H7          -4.9220     0.6930     2.4100 h1         1 AWX       0.065200
     40 H8          -4.8360    -0.7400     1.4000 h1         1 AWX       0.065200
     41 H9          -3.0020     2.0220     2.7300 ha         1 AWX       0.148500
     42 H10         -0.6520     2.5490     2.2170 ha         1 AWX       0.156000
     43 H11         -0.8240    -0.0570    -1.1850 ha         1 AWX       0.156000
     44 H12         -3.1490    -0.6170    -0.6370 ha         1 AWX       0.148500
     45 H13          5.2710     4.2650    -0.6700 hn         1 AWX       0.350500
     46 H14          5.7590    -0.0200    -0.9380 hn         1 AWX       0.408300
     47 H15          4.2300    -0.6800    -1.0670 hn         1 AWX       0.408300
     48 H16         -0.5510    -1.1810     2.3240 hc         1 AWX       0.050700
     49 H17          0.8640    -1.8740     3.1050 hc         1 AWX       0.050700
     50 H18          0.8560    -0.1730     2.6510 hc         1 AWX       0.050700
     51 H19          0.3890    -4.2600     1.9230 ha         1 AWX       0.139000
     52 H20          1.9270    -5.9450    -1.7070 ha         1 AWX       0.135000
     53 H21          2.5470    -3.7090    -2.5550 ha         1 AWX       0.150000
     54 H22          0.3110    -7.2200    -0.1550 hc         1 AWX       0.044033
     55 H23          1.6840    -7.1770     0.9360 hc         1 AWX       0.044033
     56 H24          0.1120    -6.6150     1.4880 hc         1 AWX       0.044033
@<TRIPOS>BOND
     1     1     2 2   
     2     1    35 1   
     3     1    36 1   
     4     2     3 1   
     5     2    37 1   
     6     3     4 2   
     7     3     5 1   
     8     5     6 1   
     9     5    38 1   
    10     6     7 1   
    11     6    39 1   
    12     6    40 1   
    13     7     8 ar  
    14     7    12 ar  
    15     8     9 ar  
    16     8    41 1   
    17     9    10 ar  
    18     9    42 1   
    19    10    11 ar  
    20    10    13 1   
    21    11    12 ar  
    22    11    43 1   
    23    12    44 1   
    24    13    14 1   
    25    13    17 1   
    26    14    15 2   
    27    14    24 1   
    28    15    16 1   
    29    15    21 1   
    30    16    17 2   
    31    16    18 1   
    32    18    19 1   
    33    18    22 2   
    34    19    20 1   
    35    19    45 1   
    36    20    21 2   
    37    21    23 1   
    38    23    46 1   
    39    23    47 1   
    40    24    25 2   
    41    24    28 1   
    42    25    26 1   
    43    25    29 1   
    44    26    27 ar  
    45    26    30 ar  
    46    27    28 1   
    47    27    33 ar  
    48    29    48 1   
    49    29    49 1   
    50    29    50 1   
    51    30    31 ar  
    52    30    51 1   
    53    31    32 ar  
    54    31    34 1   
    55    32    33 ar  
    56    32    52 1   
    57    33    53 1   
    58    34    54 1   
    59    34    55 1   
    60    34    56 1   
@<TRIPOS>SUBSTRUCTURE
     1 AWX         1 TEMP              0 ****  ****    0 ROOT
