@<TRIPOS>MOLECULE
AWX
   56    60     1     0     0
SMALL
No Charge or Current Charge


@<TRIPOS>ATOM
      1 C1          -7.6560     1.8560    -2.4370 c2         1 AWX      -0.227000
      2 C2          -7.0240     1.8440    -1.2360 ce         1 AWX      -0.304200
      3 C3          -6.1660     0.7270    -0.7490 c          1 AWX       0.604300
      4 O4          -5.9460    -0.2800    -1.4060 o          1 AWX      -0.610100
      5 N5          -5.6460     0.9240     0.5060 ns         1 AWX      -0.503900
      6 C6          -4.7580    -0.0100     1.1980 c3         1 AWX       0.147300
      7 C7          -3.2980     0.3830     1.0270 ca         1 AWX      -0.104300
      8 C8          -2.6630     1.1960     1.9850 ca         1 AWX      -0.091000
      9 C9          -1.3140     1.5600     1.8240 ca         1 AWX      -0.093000
     10 C10         -0.5810     1.1050     0.7090 ca         1 AWX      -0.005200
     11 C11         -1.2270     0.3110    -0.2620 ca         1 AWX      -0.093000
     12 C12         -2.5750    -0.0520    -0.1000 ca         1 AWX      -0.091000
     13 N13          0.7560     1.4840     0.5480 na         1 AWX       0.259000
     14 C14          1.7790     0.6190     0.1230 cc         1 AWX      -0.051800
     15 C15          2.6970     1.5140    -0.3920 cd         1 AWX      -0.233900
     16 C16          2.1800     2.8190    -0.2440 cd         1 AWX       0.198500
     17 N17          0.9750     2.8270     0.3050 nc         1 AWX      -0.431800
     18 C18          2.9370     4.0300    -0.6930 c          1 AWX       0.475500
     19 N19          4.1690     3.6660    -1.2270 ns         1 AWX      -0.238900
     20 N20          4.7180     2.3960    -1.3530 nc         1 AWX      -0.533300
     21 C21          4.0190     1.3470    -0.9460 cd         1 AWX       0.630800
     22 O22          2.5620     5.1950    -0.6200 o          1 AWX      -0.531000
     23 N23          4.6670     0.1830    -1.0430 nv         1 AWX      -0.985200
     24 C24          1.7890    -0.8370     0.1730 cc         1 AWX       0.069900
     25 C25          1.0610    -1.6850     1.0100 cd         1 AWX      -0.068400
     26 C26          1.3710    -3.0190     0.5930 ca         1 AWX      -0.116800
     27 C27          2.2690    -2.8910    -0.4270 ca         1 AWX       0.066100
     28 O28          2.5730    -1.5810    -0.7070 os         1 AWX      -0.174200
     29 C29          0.2590    -1.3640     2.2490 c3         1 AWX      -0.031900
     30 C30          0.9260    -4.2680     1.0490 ca         1 AWX      -0.053000
     31 C31          1.4380    -5.4230     0.4130 ca         1 AWX      -0.093300
     32 C32          2.3730    -5.2900    -0.6450 ca         1 AWX      -0.082000
     33 C33          2.7980    -4.0140    -1.0740 ca         1 AWX      -0.106000
     34 C34          0.9920    -6.8040     0.8680 c3         1 AWX      -0.045800
     35 H1          -8.2770     2.6960    -2.7510 ha         1 AWX       0.177000
     36 H2          -7.5720     1.0270    -3.1420 ha         1 AWX       0.177000
     37 H4          -7.1330     2.6890    -0.5580 ha         1 AWX       0.176000
     38 H6          -5.8830     1.7930     0.9670 hn         1 AWX       0.316500
     39 H7          -5.0170    -0.0150     2.2650 h1         1 AWX       0.065200
     40 H8          -4.9170    -1.0290     0.8180 h1         1 AWX       0.065200
     41 H9          -3.2140     1.5490     2.8540 ha         1 AWX       0.130500
     42 H10         -0.8350     2.1910     2.5700 ha         1 AWX       0.138000
     43 H11         -0.6850    -0.0280    -1.1430 ha         1 AWX       0.138000
     44 H12         -3.0590    -0.6700    -0.8530 ha         1 AWX       0.130500
     45 H13          4.7350     4.4480    -1.5530 hn         1 AWX       0.350500
     46 H14          5.4770     0.1730    -1.6490 hn         1 AWX       0.463500
     47 H15          4.1150    -0.6620    -0.9890 hn         1 AWX       0.463500
     48 H16         -0.8150    -1.3380     2.0370 hc         1 AWX       0.050700
     49 H17          0.4170    -2.1270     3.0210 hc         1 AWX       0.050700
     50 H18          0.5600    -0.4080     2.6910 hc         1 AWX       0.050700
     51 H19          0.2100    -4.3450     1.8640 ha         1 AWX       0.121000
     52 H20          2.7710    -6.1780    -1.1320 ha         1 AWX       0.117000
     53 H21          3.5150    -3.9040    -1.8840 ha         1 AWX       0.132000
     54 H22          0.9760    -7.5140     0.0320 hc         1 AWX       0.044033
     55 H23          1.6700    -7.2010     1.6320 hc         1 AWX       0.044033
     56 H24         -0.0170    -6.7790     1.2960 hc         1 AWX       0.044033
@<TRIPOS>BOND
     1     1     2 2   
     2     1    35 1   
     3     1    36 1   
     4     2     3 1   
     5     2    37 1   
     6     3     4 2   
     7     3     5 1   
     8     5     6 1   
     9     5    38 1   
    10     6     7 1   
    11     6    39 1   
    12     6    40 1   
    13     7     8 ar  
    14     7    12 ar  
    15     8     9 ar  
    16     8    41 1   
    17     9    10 ar  
    18     9    42 1   
    19    10    11 ar  
    20    10    13 1   
    21    11    12 ar  
    22    11    43 1   
    23    12    44 1   
    24    13    14 1   
    25    13    17 1   
    26    14    15 2   
    27    14    24 1   
    28    15    16 1   
    29    15    21 1   
    30    16    17 2   
    31    16    18 1   
    32    18    19 1   
    33    18    22 2   
    34    19    20 1   
    35    19    45 1   
    36    20    21 2   
    37    21    23 1   
    38    23    46 1   
    39    23    47 1   
    40    24    25 2   
    41    24    28 1   
    42    25    26 1   
    43    25    29 1   
    44    26    27 ar  
    45    26    30 ar  
    46    27    28 1   
    47    27    33 ar  
    48    29    48 1   
    49    29    49 1   
    50    29    50 1   
    51    30    31 ar  
    52    30    51 1   
    53    31    32 ar  
    54    31    34 1   
    55    32    33 ar  
    56    32    52 1   
    57    33    53 1   
    58    34    54 1   
    59    34    55 1   
    60    34    56 1   
@<TRIPOS>SUBSTRUCTURE
     1 AWX         1 TEMP              0 ****  ****    0 ROOT
