@<TRIPOS>MOLECULE
AWY
   35    36     1     0     0
SMALL
No Charge or Current Charge


@<TRIPOS>ATOM
      1 N1          -3.4190     0.1610     0.3700 ns         1 AWY      -0.512900
      2 C4          -1.3020    -0.9860     1.0100 c3         1 AWY      -0.048100
      3 C5           0.0330    -1.5360     0.5030 ca         1 AWY      -0.079300
      4 C6           0.1410    -2.9270     0.3010 ca         1 AWY      -0.092000
      5 C7           1.3360    -3.4950    -0.1660 ca         1 AWY      -0.119000
      6 C8           2.4410    -2.6790    -0.4400 ca         1 AWY      -0.082000
      7 C10          1.1530    -0.7040     0.2240 ca         1 AWY       0.013000
      8 C13          3.4130     0.9070    -0.3500 ca         1 AWY      -0.178000
      9 C15          3.1850     3.7760     0.0550 c3         1 AWY       0.150900
     10 C1          -5.5930     1.2750     0.3210 c3         1 AWY      -0.179100
     11 C2          -4.3460     0.8030    -0.4160 c          1 AWY       0.598100
     12 O1          -4.1800     0.9800    -1.6130 o          1 AWY      -0.607100
     13 C3          -2.1490    -0.3740    -0.1240 c3         1 AWY       0.104000
     14 C9           2.3550    -1.2880    -0.2480 ca         1 AWY      -0.070000
     15 C11          1.1080     0.7000     0.4000 ca         1 AWY      -0.156000
     16 C12          2.2240     1.5020     0.1180 ca         1 AWY       0.144100
     17 C14          3.4740    -0.4830    -0.5310 ca         1 AWY      -0.061000
     18 O2           2.1030     2.8630     0.3140 os         1 AWY      -0.343100
     19 H1          -3.6430     0.0590     1.3530 hn         1 AWY       0.310500
     20 H2          -1.8840    -1.7860     1.4830 hc         1 AWY       0.049200
     21 H3          -1.1410    -0.2410     1.7980 hc         1 AWY       0.049200
     22 H4          -0.7070    -3.5760     0.5050 ha         1 AWY       0.110000
     23 H5           1.4040    -4.5710    -0.3170 ha         1 AWY       0.115000
     24 H6           3.3630    -3.1280    -0.8020 ha         1 AWY       0.113000
     25 H7           4.2930     1.5010    -0.5770 ha         1 AWY       0.118000
     26 H8           3.4880     3.7320    -0.9990 h1         1 AWY       0.040700
     27 H9           2.8750     4.8040     0.2770 h1         1 AWY       0.040700
     28 H10          4.0530     3.5400     0.6830 h1         1 AWY       0.040700
     29 H11         -5.2920     1.9150     1.1590 hc         1 AWY       0.058367
     30 H12         -6.3070     1.7820    -0.3380 hc         1 AWY       0.058367
     31 H13         -6.0500     0.4210     0.8330 hc         1 AWY       0.058367
     32 H14         -2.3580    -1.1450    -0.8780 h1         1 AWY       0.058200
     33 H15         -1.5890     0.4350    -0.6110 h1         1 AWY       0.058200
     34 H16          0.2110     1.1930     0.7580 ha         1 AWY       0.129000
     35 H17          4.3950    -0.9350    -0.8930 ha         1 AWY       0.113000
@<TRIPOS>BOND
     1     1    11 1   
     2     1    13 1   
     3     1    19 1   
     4     2     3 1   
     5     2    13 1   
     6     2    20 1   
     7     2    21 1   
     8     3     4 ar  
     9     3     7 ar  
    10     4     5 ar  
    11     4    22 1   
    12     5     6 ar  
    13     5    23 1   
    14     6    14 ar  
    15     6    24 1   
    16     7    14 ar  
    17     7    15 ar  
    18     8    16 ar  
    19     8    17 ar  
    20     8    25 1   
    21     9    18 1   
    22     9    26 1   
    23     9    27 1   
    24     9    28 1   
    25    10    11 1   
    26    10    29 1   
    27    10    30 1   
    28    10    31 1   
    29    11    12 2   
    30    13    32 1   
    31    13    33 1   
    32    14    17 ar  
    33    15    16 ar  
    34    15    34 1   
    35    16    18 1   
    36    17    35 1   
@<TRIPOS>SUBSTRUCTURE
     1 AWY         1 TEMP              0 ****  ****    0 ROOT
