@<TRIPOS>MOLECULE
AWY
   35    36     1     0     0
SMALL
bcc


@<TRIPOS>ATOM
      1 N1          -3.3560     0.1350     0.3990 ns         1 AWY      -0.579900
      2 C4          -1.2770    -0.9630     1.0380 c3         1 AWY      -0.048100
      3 C5           0.0290    -1.5290     0.5530 ca         1 AWY      -0.079300
      4 C6           0.1590    -2.8830     0.3770 ca         1 AWY      -0.110000
      5 C7           1.3490    -3.4630    -0.1100 ca         1 AWY      -0.137000
      6 C8           2.4150    -2.6690    -0.4210 ca         1 AWY      -0.100000
      7 C10          1.1340    -0.6800     0.2400 ca         1 AWY       0.013000
      8 C13          3.3510     0.9320    -0.4020 ca         1 AWY      -0.196000
      9 C15          3.1040     3.7000     0.0070 c3         1 AWY       0.127700
     10 C1          -5.4890     1.2650     0.3220 c3         1 AWY      -0.179100
     11 C2          -4.2540     0.7550    -0.3800 c          1 AWY       0.665100
     12 O1          -4.0870     0.9020    -1.5840 o          1 AWY      -0.607100
     13 C3          -2.1180    -0.4110    -0.1120 c3         1 AWY       0.104000
     14 C9           2.3320    -1.2670    -0.2520 ca         1 AWY      -0.070000
     15 C11          1.0850     0.7200     0.4050 ca         1 AWY      -0.174000
     16 C12          2.1640     1.5160     0.0940 ca         1 AWY       0.144100
     17 C14          3.4200    -0.4250    -0.5630 ca         1 AWY      -0.079000
     18 O2           2.0150     2.8410     0.2850 os         1 AWY      -0.319900
     19 H1          -3.5500     0.0360     1.3820 hn         1 AWY       0.310500
     20 H2          -1.8410    -1.7490     1.5450 hc         1 AWY       0.049200
     21 H3          -1.1110    -0.1760     1.7790 hc         1 AWY       0.049200
     22 H4          -0.6780    -3.5280     0.6170 ha         1 AWY       0.128000
     23 H5           1.4080    -4.5360    -0.2340 ha         1 AWY       0.133000
     24 H6           3.3350    -3.0990    -0.7990 ha         1 AWY       0.131000
     25 H7           4.2120     1.5360    -0.6550 ha         1 AWY       0.136000
     26 H8           3.3930     3.6690    -1.0470 h1         1 AWY       0.040700
     27 H9           2.7690     4.7070     0.2460 h1         1 AWY       0.040700
     28 H10          3.9780     3.4670     0.6200 h1         1 AWY       0.040700
     29 H11         -5.4990     1.0620     1.3910 hc         1 AWY       0.058367
     30 H12         -5.5700     2.3420     0.1740 hc         1 AWY       0.058367
     31 H13         -6.3730     0.8090    -0.1240 hc         1 AWY       0.058367
     32 H14         -2.3200    -1.2120    -0.8280 h1         1 AWY       0.058200
     33 H15         -1.5660     0.3630    -0.6500 h1         1 AWY       0.058200
     34 H16          0.1910     1.1940     0.7900 ha         1 AWY       0.147000
     35 H17          4.3340    -0.8680    -0.9410 ha         1 AWY       0.131000
@<TRIPOS>BOND
     1     1    11 1   
     2     1    13 1   
     3     1    19 1   
     4     2     3 1   
     5     2    13 1   
     6     2    20 1   
     7     2    21 1   
     8     3     4 ar  
     9     3     7 ar  
    10     4     5 ar  
    11     4    22 1   
    12     5     6 ar  
    13     5    23 1   
    14     6    14 ar  
    15     6    24 1   
    16     7    14 ar  
    17     7    15 ar  
    18     8    16 ar  
    19     8    17 ar  
    20     8    25 1   
    21     9    18 1   
    22     9    26 1   
    23     9    27 1   
    24     9    28 1   
    25    10    11 1   
    26    10    29 1   
    27    10    30 1   
    28    10    31 1   
    29    11    12 2   
    30    13    32 1   
    31    13    33 1   
    32    14    17 ar  
    33    15    16 ar  
    34    15    34 1   
    35    16    18 1   
    36    17    35 1   
@<TRIPOS>SUBSTRUCTURE
     1 AWY         1 TEMP              0 ****  ****    0 ROOT
