@<TRIPOS>MOLECULE
AWZ
   56    60     1     0     0
SMALL
abcg2


@<TRIPOS>ATOM
      1 C4           4.5050    -0.4610    -0.0430 ca         1 AWZ       0.075000
      2 C14         -1.9660    -2.3550     1.1970 cc         1 AWZ      -0.102000
      3 C6           4.0280    -2.6250    -0.5320 ca         1 AWZ       0.185300
      4 C11         -0.0490    -2.0940    -0.4960 c3         1 AWZ       0.317800
      5 C7           4.4680    -4.0210    -0.8430 c3         1 AWZ      -0.132400
      6 C9           2.2410    -1.2330    -0.1960 ca         1 AWZ       0.412900
      7 C12         -0.1480    -2.3090    -2.0050 c3         1 AWZ      -0.109100
      8 C13         -1.3710    -1.7640     0.1240 cd         1 AWZ      -0.227300
      9 C3           3.1430    -0.1500     0.0680 ca         1 AWZ      -0.178000
     10 C23         -7.1600     2.0310    -0.9500 c5         1 AWZ      -0.104700
     11 C24         -6.5000     1.4110    -2.1990 c5         1 AWZ      -0.099400
     12 C25         -5.1430     0.8550    -1.7280 c5         1 AWZ       0.068600
     13 N19         -5.3880     0.6550    -0.3110 na         1 AWZ      -0.169500
     14 C20         -6.4850     1.2830     0.1470 cc         1 AWZ       0.398800
     15 N21         -6.6610     1.1020     1.4310 nd         1 AWZ      -0.656000
     16 C22         -5.6110     0.3190     1.8160 cd         1 AWZ       0.260900
     17 C18         -4.7930     0.0220     0.7470 cc         1 AWZ      -0.130000
     18 C16         -3.5970    -0.7820     0.6800 cd         1 AWZ      -0.104000
     19 S17         -2.3680    -0.5010    -0.5040 ss         1 AWZ       0.161000
     20 C15         -3.2350    -1.8060     1.5120 cc         1 AWZ      -0.125000
     21 N10          0.9110    -1.0530    -0.1560 nu         1 AWZ      -0.930100
     22 N8           2.6970    -2.4380    -0.4790 nb         1 AWZ      -0.302000
     23 N5           4.9440    -1.7120    -0.3450 nb         1 AWZ      -0.219000
     24 C26          5.4600     0.5570     0.1670 ca         1 AWZ      -0.189000
     25 C2           2.7470     1.1610     0.4160 ca         1 AWZ      -0.150000
     26 C1           3.6810     2.1390     0.6270 ca         1 AWZ       0.106100
     27 O30          3.4160     3.4100     0.9680 os         1 AWZ      -0.318100
     28 C31          2.0670     3.7700     1.1920 c3         1 AWZ       0.143900
     29 C27          5.0700     1.8320     0.4870 ca         1 AWZ       0.156100
     30 O28          5.8950     2.8620     0.6970 os         1 AWZ      -0.318100
     31 C29          7.2870     2.6450     0.5540 c3         1 AWZ       0.142900
     32 H2           0.2950    -3.0220    -0.0350 h1         1 AWZ       0.090700
     33 H3           4.1090    -4.7130    -0.0790 hc         1 AWZ       0.055700
     34 H4           4.0480    -4.3520    -1.7930 hc         1 AWZ       0.055700
     35 H5           5.5520    -4.0900    -0.8930 hc         1 AWZ       0.055700
     36 H6          -0.4620    -1.3980    -2.5170 hc         1 AWZ       0.048700
     37 H7           0.8190    -2.6080    -2.4070 hc         1 AWZ       0.048700
     38 H8          -0.8710    -3.0930    -2.2290 hc         1 AWZ       0.048700
     39 H9          -6.9470     3.1010    -0.8700 hc         1 AWZ       0.073700
     40 H10         -8.2420     1.9110    -0.9450 hc         1 AWZ       0.073700
     41 H11         -7.1160     0.5910    -2.5680 hc         1 AWZ       0.061200
     42 H12         -6.3800     2.1270    -3.0090 hc         1 AWZ       0.061200
     43 H13         -4.8790    -0.0790    -2.2220 h1         1 AWZ       0.065200
     44 H14         -4.3300     1.5680    -1.8750 h1         1 AWZ       0.065200
     45 H15         -5.4780     0.0050     2.8410 h4         1 AWZ       0.041100
     46 H16         -3.8650    -2.1700     2.3120 ha         1 AWZ       0.143000
     47 H17          0.5500    -0.1230    -0.0260 hn         1 AWZ       0.495000
     48 H18          6.5040     0.2910     0.0670 ha         1 AWZ       0.141000
     49 H19          1.6980     1.3990     0.5280 ha         1 AWZ       0.113000
     50 H20          1.4590     3.6590     0.2910 h1         1 AWZ       0.040700
     51 H21          1.6200     3.1780     1.9950 h1         1 AWZ       0.040700
     52 H22          2.0720     4.8160     1.4860 h1         1 AWZ       0.040700
     53 H23          7.6570     1.9050     1.2680 h1         1 AWZ       0.045033
     54 H24          7.5410     2.3190    -0.4580 h1         1 AWZ       0.045033
     55 H25          7.7680     3.5990     0.7510 h1         1 AWZ       0.045033
     56 H1          -1.5150    -3.1750     1.7380 ha         1 AWZ       0.141000
@<TRIPOS>BOND
     1     1     9 ar  
     2     1    23 ar  
     3     1    24 ar  
     4     2     8 2   
     5     2    20 1   
     6     2    56 1   
     7     3     5 1   
     8     3    22 ar  
     9     3    23 ar  
    10     4     7 1   
    11     4     8 1   
    12     4    21 1   
    13     4    32 1   
    14     5    33 1   
    15     5    34 1   
    16     5    35 1   
    17     6     9 ar  
    18     6    21 1   
    19     6    22 ar  
    20     7    36 1   
    21     7    37 1   
    22     7    38 1   
    23     8    19 1   
    24     9    25 ar  
    25    10    11 1   
    26    10    14 1   
    27    10    39 1   
    28    10    40 1   
    29    11    12 1   
    30    11    41 1   
    31    11    42 1   
    32    12    13 1   
    33    12    43 1   
    34    12    44 1   
    35    13    14 1   
    36    13    17 1   
    37    14    15 2   
    38    15    16 1   
    39    16    17 2   
    40    16    45 1   
    41    17    18 1   
    42    18    19 1   
    43    18    20 2   
    44    20    46 1   
    45    21    47 1   
    46    24    29 ar  
    47    24    48 1   
    48    25    26 ar  
    49    25    49 1   
    50    26    27 1   
    51    26    29 ar  
    52    27    28 1   
    53    28    50 1   
    54    28    51 1   
    55    28    52 1   
    56    29    30 1   
    57    30    31 1   
    58    31    53 1   
    59    31    54 1   
    60    31    55 1   
@<TRIPOS>SUBSTRUCTURE
     1 AWZ         1 TEMP              0 ****  ****    0 ROOT
