@<TRIPOS>MOLECULE
AWZ
   56    60     1     0     0
SMALL
No Charge or Current Charge


@<TRIPOS>ATOM
      1 C4           4.4450    -0.4550    -0.0780 ca         1 AWZ       0.075000
      2 C14         -1.9900    -2.4600     1.3200 cc         1 AWZ      -0.102000
      3 C6           4.1370    -2.7050    -0.4790 ca         1 AWZ       0.185300
      4 C11         -0.1010    -2.4730    -0.4380 c3         1 AWZ       0.317800
      5 C7           4.7590    -4.0680    -0.7250 c3         1 AWZ      -0.132400
      6 C9           2.2440    -1.4400    -0.2380 ca         1 AWZ       0.412900
      7 C12         -0.2090    -2.8040    -1.9400 c3         1 AWZ      -0.109100
      8 C13         -1.4060    -2.0160     0.1590 cd         1 AWZ      -0.227300
      9 C3           3.0400    -0.2860    -0.0370 ca         1 AWZ      -0.178000
     10 C23         -6.7610     2.3500    -0.7610 c5         1 AWZ      -0.104700
     11 C24         -5.6810     2.3310    -1.9300 c5         1 AWZ      -0.099400
     12 C25         -4.5920     1.3020    -1.4300 c5         1 AWZ       0.068600
     13 N19         -5.1210     0.7810    -0.1910 na         1 AWZ      -0.169500
     14 C20         -6.2860     1.3110     0.2030 cc         1 AWZ       0.398800
     15 N21         -6.7420     0.8080     1.3380 nd         1 AWZ      -0.656000
     16 C22         -5.7780    -0.1300     1.7030 cd         1 AWZ       0.260900
     17 C18         -4.7680    -0.1520     0.7630 cc         1 AWZ      -0.130000
     18 C16         -3.6000    -0.9040     0.6880 cd         1 AWZ      -0.104000
     19 S17         -2.4070    -0.7690    -0.6240 ss         1 AWZ       0.161000
     20 C15         -3.2260    -1.8350     1.6210 cc         1 AWZ      -0.125000
     21 N10          0.8520    -1.3900    -0.2060 nu         1 AWZ      -0.930100
     22 N8           2.7940    -2.6460    -0.4560 nb         1 AWZ      -0.302000
     23 N5           4.9830    -1.6710    -0.3000 nb         1 AWZ      -0.219000
     24 C26          5.2810     0.6580     0.1150 ca         1 AWZ      -0.189000
     25 C2           2.4900     0.9980     0.1940 ca         1 AWZ      -0.150000
     26 C1           3.3360     2.1130     0.3870 ca         1 AWZ       0.106100
     27 O30          2.8310     3.3840     0.6150 os         1 AWZ      -0.318100
     28 C31          1.4210     3.6610     0.6720 c3         1 AWZ       0.143900
     29 C27          4.7390     1.9410     0.3470 ca         1 AWZ       0.156100
     30 O28          5.5480     3.0500     0.5400 os         1 AWZ      -0.318100
     31 C29          6.9840     2.9750     0.5170 c3         1 AWZ       0.142900
     32 H2           0.2160    -3.3810     0.0990 h1         1 AWZ       0.090700
     33 H3           4.8690    -4.6200     0.2160 hc         1 AWZ       0.055700
     34 H4           4.1400    -4.6740    -1.3990 hc         1 AWZ       0.055700
     35 H5           5.7520    -3.9820    -1.1810 hc         1 AWZ       0.055700
     36 H6          -0.4610    -1.9140    -2.5270 hc         1 AWZ       0.048700
     37 H7           0.7380    -3.2050    -2.3180 hc         1 AWZ       0.048700
     38 H8          -0.9860    -3.5600    -2.1060 hc         1 AWZ       0.048700
     39 H9          -6.8140     3.3300    -0.2760 hc         1 AWZ       0.073700
     40 H10         -7.7650     2.1140    -1.1300 hc         1 AWZ       0.073700
     41 H11         -6.1260     2.0020    -2.8760 hc         1 AWZ       0.061200
     42 H12         -5.2490     3.3240    -2.1050 hc         1 AWZ       0.061200
     43 H13         -4.4450     0.4960    -2.1610 h1         1 AWZ       0.065200
     44 H14         -3.6290     1.7980    -1.2550 h1         1 AWZ       0.065200
     45 H15         -5.8670    -0.7200     2.6070 h4         1 AWZ       0.041100
     46 H16         -3.8000    -2.0840     2.5080 ha         1 AWZ       0.143000
     47 H17          0.4530    -0.5040     0.0870 hn         1 AWZ       0.495000
     48 H18          6.3550     0.5040     0.0800 ha         1 AWZ       0.141000
     49 H19          1.4130     1.1260     0.2190 ha         1 AWZ       0.113000
     50 H20          0.9340     3.4040    -0.2770 h1         1 AWZ       0.040700
     51 H21          0.9440     3.0920     1.4800 h1         1 AWZ       0.040700
     52 H22          1.2510     4.7280     0.8630 h1         1 AWZ       0.040700
     53 H23          7.3520     2.3010     1.3020 h1         1 AWZ       0.045033
     54 H24          7.3410     2.6150    -0.4560 h1         1 AWZ       0.045033
     55 H25          7.4190     3.9670     0.6920 h1         1 AWZ       0.045033
     56 H1          -1.5580    -3.2210     1.9650 ha         1 AWZ       0.141000
@<TRIPOS>BOND
     1     1     9 ar  
     2     1    23 ar  
     3     1    24 ar  
     4     2     8 2   
     5     2    20 1   
     6     2    56 1   
     7     3     5 1   
     8     3    22 ar  
     9     3    23 ar  
    10     4     7 1   
    11     4     8 1   
    12     4    21 1   
    13     4    32 1   
    14     5    33 1   
    15     5    34 1   
    16     5    35 1   
    17     6     9 ar  
    18     6    21 1   
    19     6    22 ar  
    20     7    36 1   
    21     7    37 1   
    22     7    38 1   
    23     8    19 1   
    24     9    25 ar  
    25    10    11 1   
    26    10    14 1   
    27    10    39 1   
    28    10    40 1   
    29    11    12 1   
    30    11    41 1   
    31    11    42 1   
    32    12    13 1   
    33    12    43 1   
    34    12    44 1   
    35    13    14 1   
    36    13    17 1   
    37    14    15 2   
    38    15    16 1   
    39    16    17 2   
    40    16    45 1   
    41    17    18 1   
    42    18    19 1   
    43    18    20 2   
    44    20    46 1   
    45    21    47 1   
    46    24    29 ar  
    47    24    48 1   
    48    25    26 ar  
    49    25    49 1   
    50    26    27 1   
    51    26    29 ar  
    52    27    28 1   
    53    28    50 1   
    54    28    51 1   
    55    28    52 1   
    56    29    30 1   
    57    30    31 1   
    58    31    53 1   
    59    31    54 1   
    60    31    55 1   
@<TRIPOS>SUBSTRUCTURE
     1 AWZ         1 TEMP              0 ****  ****    0 ROOT
