@<TRIPOS>MOLECULE
AX0
   53    57     1     0     0
SMALL
bcc


@<TRIPOS>ATOM
      1 C13          4.2350    -2.9280     0.2190 c          1 AX0       0.618000
      2 C17          4.3720    -0.0780     0.1050 cc         1 AX0       0.633800
      3 C20          1.7590    -0.3220     0.0160 cd         1 AX0      -0.005100
      4 C21          1.1520     0.9900    -0.0720 cd         1 AX0       0.059900
      5 C24          0.8740     4.1890     1.3820 ca         1 AX0      -0.120000
      6 C26         -0.6850     5.1360    -0.2530 ca         1 AX0      -0.094300
      7 C28         -0.7090     3.9440    -0.9590 ca         1 AX0      -0.074000
      8 C01         -7.9870    -1.4380     0.5060 c2         1 AX0      -0.117000
      9 C02         -6.8740    -1.8440    -0.0930 ce         1 AX0      -0.260200
     10 C03         -5.5350    -1.4590     0.4190 c          1 AX0       0.678300
     11 C06         -3.1410    -1.8140    -0.1700 ca         1 AX0       0.092600
     12 C07         -2.3270    -2.5100    -1.0700 ca         1 AX0      -0.169000
     13 C08         -0.9520    -2.4030    -1.0120 ca         1 AX0      -0.076000
     14 C09         -0.3700    -1.6010    -0.0420 ca         1 AX0      -0.046200
     15 C12          3.0280    -2.1210     0.1190 cc         1 AX0       0.263800
     16 C19          3.0850    -0.7220     0.0960 cc         1 AX0      -0.303200
     17 C23          0.8270     3.0150     0.6490 ca         1 AX0       0.065100
     18 C25          0.1060     5.2380     0.9080 ca         1 AX0      -0.102000
     19 C27         -1.4710     6.3260    -0.7230 c3         1 AX0      -0.044800
     20 C29          0.0590     2.8710    -0.5030 ca         1 AX0      -0.122800
     21 C30          0.2920     1.5310    -0.9700 cc         1 AX0      -0.078400
     22 C31         -0.2990     0.8990    -2.1780 c3         1 AX0      -0.029900
     23 C32         -1.1600    -0.9210     0.8690 ca         1 AX0      -0.076000
     24 C33         -2.5410    -1.0170     0.8080 ca         1 AX0      -0.169000
     25 N10          1.0420    -1.4760     0.0040 na         1 AX0       0.217300
     26 N11          1.7900    -2.5680     0.0580 nd         1 AX0      -0.430800
     27 N15          5.3400    -2.1420     0.2610 ns         1 AX0      -0.305900
     28 N16          5.4460    -0.7910     0.1730 nd         1 AX0      -0.534300
     29 N18          4.4800     1.2850     0.0880 nv         1 AX0      -0.872800
     30 O04         -5.3750    -0.7600     1.4040 o          1 AX0      -0.574100
     31 O14          4.2770    -4.1500     0.2690 o          1 AX0      -0.607500
     32 O22          1.4910     1.8710     0.9160 os         1 AX0      -0.147200
     33 H1           1.4740     4.2850     2.2770 ha         1 AX0       0.155000
     34 H2          -1.3180     3.8490    -1.8500 ha         1 AX0       0.138000
     35 H3          -8.9590    -1.7190     0.1260 ha         1 AX0       0.129500
     36 H4          -7.9670    -0.8150     1.3910 ha         1 AX0       0.129500
     37 H5          -6.9260    -2.4670    -0.9790 ha         1 AX0       0.129000
     38 H6          -2.7760    -3.1320    -1.8340 ha         1 AX0       0.156000
     39 H7          -0.3380    -2.9320    -1.7280 ha         1 AX0       0.155500
     40 H8           0.1140     6.1740     1.4530 ha         1 AX0       0.135000
     41 H9          -0.8270     7.0460    -1.2310 hc         1 AX0       0.043033
     42 H10         -2.2530     6.0380    -1.4240 hc         1 AX0       0.043033
     43 H11         -1.9430     6.8490     0.1090 hc         1 AX0       0.043033
     44 H12         -0.3310     1.6080    -3.0060 hc         1 AX0       0.050033
     45 H13          0.2700     0.0310    -2.5050 hc         1 AX0       0.050033
     46 H14         -1.3230     0.5730    -1.9850 hc         1 AX0       0.050033
     47 H15         -0.7080    -0.3160     1.6430 ha         1 AX0       0.155500
     48 H16         -3.1330    -0.4780     1.5280 ha         1 AX0       0.156000
     49 H17         -4.7860    -2.5430    -1.1100 hn         1 AX0       0.319500
     50 H18          6.2350    -2.6030     0.3330 hn         1 AX0       0.350500
     51 H19          5.4110     1.6270    -0.0990 hn         1 AX0       0.407300
     52 H20          3.7840     1.7840    -0.4420 hn         1 AX0       0.407300
     53 N05         -4.5150    -1.9680    -0.3270 ns         1 AX0      -0.470100
@<TRIPOS>BOND
     1     1    15 1   
     2     1    27 1   
     3     1    31 2   
     4     2    16 1   
     5     2    28 2   
     6     2    29 1   
     7     3     4 1   
     8     3    16 2   
     9     3    25 1   
    10     4    21 2   
    11     4    32 1   
    12     5    17 ar  
    13     5    18 ar  
    14     5    33 1   
    15     6     7 ar  
    16     6    18 ar  
    17     6    19 1   
    18     7    20 ar  
    19     7    34 1   
    20     8     9 2   
    21     8    35 1   
    22     8    36 1   
    23     9    10 1   
    24     9    37 1   
    25    10    30 2   
    26    10    53 1   
    27    11    12 ar  
    28    11    24 ar  
    29    11    53 1   
    30    12    13 ar  
    31    12    38 1   
    32    13    14 ar  
    33    13    39 1   
    34    14    23 ar  
    35    14    25 1   
    36    15    16 1   
    37    15    26 2   
    38    17    20 ar  
    39    17    32 1   
    40    18    40 1   
    41    19    41 1   
    42    19    42 1   
    43    19    43 1   
    44    20    21 1   
    45    21    22 1   
    46    22    44 1   
    47    22    45 1   
    48    22    46 1   
    49    23    24 ar  
    50    23    47 1   
    51    24    48 1   
    52    25    26 1   
    53    27    28 1   
    54    27    50 1   
    55    29    51 1   
    56    29    52 1   
    57    49    53 1   
@<TRIPOS>SUBSTRUCTURE
     1 AX0         1 TEMP              0 ****  ****    0 ROOT
