@<TRIPOS>MOLECULE
AX0
   53    57     1     0     0
SMALL
No Charge or Current Charge


@<TRIPOS>ATOM
      1 C13          4.2860    -2.9760     0.3420 c          1 AX0       0.475500
      2 C17          4.2540    -0.1360     0.6080 cc         1 AX0       0.633800
      3 C20          1.7910    -0.3530    -0.2050 cd         1 AX0      -0.055800
      4 C21          1.2630     1.0090    -0.2150 cd         1 AX0       0.059900
      5 C24          1.1970     4.3660     1.0180 ca         1 AX0      -0.102000
      6 C26         -0.7100     5.1570    -0.3200 ca         1 AX0      -0.094300
      7 C28         -0.8270     3.8840    -0.9290 ca         1 AX0      -0.056000
      8 C01         -7.9950    -1.4310     0.7820 c2         1 AX0      -0.217000
      9 C02         -6.8710    -1.8350     0.1380 ce         1 AX0      -0.310200
     10 C03         -5.4830    -1.4280     0.5210 c          1 AX0       0.611300
     11 C06         -3.0880    -1.7930    -0.3370 ca         1 AX0       0.000000
     12 C07         -2.3900    -2.3350    -1.4330 ca         1 AX0      -0.151000
     13 C08         -0.9890    -2.2470    -1.5080 ca         1 AX0      -0.058000
     14 C09         -0.2600    -1.5990    -0.4930 ca         1 AX0      -0.046200
     15 C12          3.0490    -2.1940     0.0200 cc         1 AX0       0.198500
     16 C19          3.0440    -0.7930     0.1810 cc         1 AX0      -0.237900
     17 C23          1.0430     3.1250     0.3950 ca         1 AX0       0.065100
     18 C25          0.3020     5.3940     0.6470 ca         1 AX0      -0.084000
     19 C27         -1.6640     6.2750    -0.7100 c3         1 AX0      -0.044800
     20 C29          0.0740     2.8800    -0.5440 ca         1 AX0      -0.122800
     21 C30          0.1990     1.5000    -0.9880 cc         1 AX0      -0.078400
     22 C31         -0.5490     0.9100    -2.1550 c3         1 AX0      -0.029900
     23 C32         -0.9520    -1.0900     0.6270 ca         1 AX0      -0.058000
     24 C33         -2.3540    -1.1770     0.6990 ca         1 AX0      -0.151000
     25 N10          1.1360    -1.5540    -0.5690 na         1 AX0       0.268000
     26 N11          1.9000    -2.6940    -0.3980 nd         1 AX0      -0.430800
     27 N15          5.3390    -2.1680     0.7600 ns         1 AX0      -0.238900
     28 N16          5.3680    -0.7850     0.8940 nd         1 AX0      -0.534300
     29 N18          4.3700     1.1880     0.6960 nv         1 AX0      -0.983200
     30 O04         -5.2660    -0.7140     1.4920 o          1 AX0      -0.574100
     31 O14          4.4030    -4.1930     0.2580 o          1 AX0      -0.532000
     32 O22          1.7720     2.0000     0.5830 os         1 AX0      -0.147200
     33 H1           1.9750     4.5310     1.7580 ha         1 AX0       0.137000
     34 H2          -1.5950     3.6880    -1.6730 ha         1 AX0       0.120000
     35 H3          -8.9870    -1.7510     0.4610 ha         1 AX0       0.179500
     36 H4          -7.9590    -0.7690     1.6500 ha         1 AX0       0.179500
     37 H5          -6.9480    -2.4910    -0.7290 ha         1 AX0       0.179000
     38 H6          -2.9350    -2.8290    -2.2350 ha         1 AX0       0.138000
     39 H7          -0.4680    -2.6770    -2.3620 ha         1 AX0       0.137500
     40 H8           0.3930     6.3740     1.1110 ha         1 AX0       0.117000
     41 H9          -1.2510     6.8720    -1.5320 hc         1 AX0       0.043033
     42 H10         -2.6330     5.8790    -1.0370 hc         1 AX0       0.043033
     43 H11         -1.8540     6.9510     0.1330 hc         1 AX0       0.043033
     44 H12         -0.7370     1.6750    -2.9180 hc         1 AX0       0.050033
     45 H13          0.0250     0.1140    -2.6410 hc         1 AX0       0.050033
     46 H14         -1.5230     0.5160    -1.8430 hc         1 AX0       0.050033
     47 H15         -0.4060    -0.6250     1.4450 ha         1 AX0       0.137500
     48 H16         -2.8460    -0.7680     1.5750 ha         1 AX0       0.138000
     49 H17         -4.8650    -2.4750    -1.0950 hn         1 AX0       0.153000
     50 H18          6.1900    -2.6810     0.9810 hn         1 AX0       0.350500
     51 H19          5.3120     1.5590     0.7110 hn         1 AX0       0.462500
     52 H20          3.6410     1.7510     0.2780 hn         1 AX0       0.462500
     53 N05         -4.5040    -1.9190    -0.3320 ns         1 AX0      -0.144000
@<TRIPOS>BOND
     1     1    15 1   
     2     1    27 1   
     3     1    31 2   
     4     2    16 1   
     5     2    28 2   
     6     2    29 1   
     7     3     4 1   
     8     3    16 2   
     9     3    25 1   
    10     4    21 2   
    11     4    32 1   
    12     5    17 ar  
    13     5    18 ar  
    14     5    33 1   
    15     6     7 ar  
    16     6    18 ar  
    17     6    19 1   
    18     7    20 ar  
    19     7    34 1   
    20     8     9 2   
    21     8    35 1   
    22     8    36 1   
    23     9    10 1   
    24     9    37 1   
    25    10    30 2   
    26    10    53 1   
    27    11    12 ar  
    28    11    24 ar  
    29    11    53 1   
    30    12    13 ar  
    31    12    38 1   
    32    13    14 ar  
    33    13    39 1   
    34    14    23 ar  
    35    14    25 1   
    36    15    16 1   
    37    15    26 2   
    38    17    20 ar  
    39    17    32 1   
    40    18    40 1   
    41    19    41 1   
    42    19    42 1   
    43    19    43 1   
    44    20    21 1   
    45    21    22 1   
    46    22    44 1   
    47    22    45 1   
    48    22    46 1   
    49    23    24 ar  
    50    23    47 1   
    51    24    48 1   
    52    25    26 1   
    53    27    28 1   
    54    27    50 1   
    55    29    51 1   
    56    29    52 1   
    57    49    53 1   
@<TRIPOS>SUBSTRUCTURE
     1 AX0         1 TEMP              0 ****  ****    0 ROOT
