@<TRIPOS>MOLECULE
AX1
   31    34     1     0     0
SMALL
No Charge or Current Charge


@<TRIPOS>ATOM
      1 CAG        -20.4670    16.8080    54.0260 ca         1 AX1      -0.096000
      2 CAQ        -19.1450    17.1430    54.3440 ca         1 AX1       0.055100
      3 OAM        -18.5060    16.8420    55.5030 os         1 AX1      -0.350100
      4 CAH        -17.1900    17.4790    55.3230 c5         1 AX1       0.373600
      5 OAL        -17.0970    18.0300    53.9610 os         1 AX1      -0.345100
      6 CAP        -18.3440    17.8190    53.4680 ca         1 AX1       0.064100
      7 CAF        -18.8030    18.2070    52.2050 ca         1 AX1      -0.092000
      8 CAE        -20.1340    17.8890    51.8560 ca         1 AX1      -0.079000
      9 CAO        -20.9780    17.1980    52.7660 ca         1 AX1      -0.032000
     10 CAS        -22.3550    16.8480    52.4100 cc         1 AX1      -0.058000
     11 NAK        -23.0030    15.6390    52.6690 na         1 AX1      -0.110000
     12 CAU        -24.3110    15.7270    52.2360 cc         1 AX1       0.181400
     13 NAI        -25.2870    14.7640    52.2830 nc         1 AX1      -0.718100
     14 CAN        -26.4340    15.1780    51.8030 cd         1 AX1       0.737800
     15 NAB        -27.4090    14.2890    51.8320 nv         1 AX1      -1.042200
     16 NAJ        -26.7200    16.3940    51.3050 ns         1 AX1      -0.454400
     17 CAT        -25.8100    17.3970    51.2270 c          1 AX1       0.618600
     18 OAC        -26.0790    18.4960    50.7710 o          1 AX1      -0.527000
     19 CAV        -24.4970    16.9870    51.7480 cd         1 AX1      -0.275600
     20 CAR        -23.2800    17.7190    51.8630 cd         1 AX1      -0.004000
     21 CAD        -23.0670    19.0870    51.5160 ch         1 AX1       0.357000
     22 NAA        -22.8650    20.2040    51.2370 n1         1 AX1      -0.453000
     23 HAG        -21.0820    16.2710    54.7430 ha         1 AX1       0.131000
     24 HAH        -17.0860    18.2950    56.0480 h2         1 AX1       0.070200
     25 HAHA       -16.3980    16.7370    55.4770 h2         1 AX1       0.070200
     26 HAF        -18.1500    18.7320    51.5120 ha         1 AX1       0.142000
     27 HAE        -20.5000    18.1640    50.8700 ha         1 AX1       0.135000
     28 HNAK       -22.5880    14.8180    53.0900 hn         1 AX1       0.366000
     29 HNAB       -28.3490    14.6470    51.9430 hn         1 AX1       0.502500
     30 HNAA       -27.1930    13.4690    52.3850 hn         1 AX1       0.502500
     31 HNAJ       -27.6380    16.5910    50.9450 hn         1 AX1       0.326500
@<TRIPOS>BOND
     1     1     2 ar  
     2     1     9 ar  
     3     1    23 1   
     4     2     3 1   
     5     2     6 ar  
     6     3     4 1   
     7     4     5 1   
     8     4    24 1   
     9     4    25 1   
    10     5     6 1   
    11     6     7 ar  
    12     7     8 ar  
    13     7    26 1   
    14     8     9 ar  
    15     8    27 1   
    16     9    10 1   
    17    10    11 1   
    18    10    20 2   
    19    11    12 1   
    20    11    28 1   
    21    12    13 1   
    22    12    19 2   
    23    13    14 2   
    24    14    15 1   
    25    14    16 1   
    26    15    29 1   
    27    15    30 1   
    28    16    17 1   
    29    16    31 1   
    30    17    18 2   
    31    17    19 1   
    32    19    20 1   
    33    20    21 1   
    34    21    22 3   
@<TRIPOS>SUBSTRUCTURE
     1 AX1         1 TEMP              0 ****  ****    0 ROOT
