@<TRIPOS>MOLECULE
AX1
   31    34     1     0     0
SMALL
abcg2


@<TRIPOS>ATOM
      1 CAG        -20.4800    16.7630    54.0040 ca         1 AX1      -0.096000
      2 CAQ        -19.1680    17.0220    54.3040 ca         1 AX1       0.055100
      3 OAM        -18.4470    16.5880    55.3830 os         1 AX1      -0.350100
      4 CAH        -17.1590    17.2220    55.2910 c5         1 AX1       0.373600
      5 OAL        -17.1030    17.8800    54.0110 os         1 AX1      -0.345100
      6 CAP        -18.3600    17.8010    53.4840 ca         1 AX1       0.064100
      7 CAF        -18.8350    18.3530    52.3170 ca         1 AX1      -0.092000
      8 CAE        -20.1700    18.0980    51.9900 ca         1 AX1      -0.079000
      9 CAO        -20.9950    17.3220    52.8100 ca         1 AX1      -0.032000
     10 CAS        -22.3800    17.0750    52.4380 cc         1 AX1      -0.058000
     11 NAK        -23.0340    15.9150    52.7980 na         1 AX1      -0.110000
     12 CAU        -24.3170    15.9140    52.3310 cc         1 AX1       0.181400
     13 NAI        -25.1950    14.9100    52.5100 nc         1 AX1      -0.718100
     14 CAN        -26.3750    15.1260    51.9630 cd         1 AX1       0.737800
     15 NAB        -27.3330    14.1800    52.0320 nv         1 AX1      -1.042200
     16 NAJ        -26.6750    16.2760    51.2820 ns         1 AX1      -0.454400
     17 CAT        -25.7980    17.3540    51.0690 c          1 AX1       0.618600
     18 OAC        -26.1770    18.3410    50.4390 o          1 AX1      -0.527000
     19 CAV        -24.5230    17.1150    51.6540 cd         1 AX1      -0.275600
     20 CAR        -23.2900    17.8540    51.7260 cd         1 AX1      -0.004000
     21 CAD        -23.0750    19.1540    51.2360 ch         1 AX1       0.357000
     22 NAA        -22.9140    20.2240    50.8270 n1         1 AX1      -0.453000
     23 HAG        -21.0940    16.1730    54.6700 ha         1 AX1       0.131000
     24 HAH        -17.0640    17.9670    56.0840 h2         1 AX1       0.070200
     25 HAHA       -16.3770    16.4660    55.3430 h2         1 AX1       0.070200
     26 HAF        -18.2020    18.9470    51.6720 ha         1 AX1       0.142000
     27 HAE        -20.5590    18.4940    51.0630 ha         1 AX1       0.135000
     28 HNAK       -22.6060    15.1340    53.2740 hn         1 AX1       0.366000
     29 HNAB       -28.2910    14.4080    51.8230 hn         1 AX1       0.502500
     30 HNAA       -27.1720    13.4090    52.6600 hn         1 AX1       0.502500
     31 HNAJ       -27.5980    16.3820    50.8780 hn         1 AX1       0.326500
@<TRIPOS>BOND
     1     1     2 ar  
     2     1     9 ar  
     3     1    23 1   
     4     2     3 1   
     5     2     6 ar  
     6     3     4 1   
     7     4     5 1   
     8     4    24 1   
     9     4    25 1   
    10     5     6 1   
    11     6     7 ar  
    12     7     8 ar  
    13     7    26 1   
    14     8     9 ar  
    15     8    27 1   
    16     9    10 1   
    17    10    11 1   
    18    10    20 2   
    19    11    12 1   
    20    11    28 1   
    21    12    13 1   
    22    12    19 2   
    23    13    14 2   
    24    14    15 1   
    25    14    16 1   
    26    15    29 1   
    27    15    30 1   
    28    16    17 1   
    29    16    31 1   
    30    17    18 2   
    31    17    19 1   
    32    19    20 1   
    33    20    21 1   
    34    21    22 3   
@<TRIPOS>SUBSTRUCTURE
     1 AX1         1 TEMP              0 ****  ****    0 ROOT
