@<TRIPOS>MOLECULE
AX2
   15    15     1     0     0
SMALL
No Charge or Current Charge


@<TRIPOS>ATOM
      1 C2           0.0250    -1.2870     0.0680 ca         1 AX2       0.453233
      2 C4           1.1110     0.6560    -0.0730 ca         1 AX2       0.453233
      3 C6          -1.1190     0.6230    -0.0660 ca         1 AX2       0.453233
      4 N7           0.0460    -2.6290     0.1610 nv         1 AX2      -1.068567
      5 N8          -2.2950     1.2760    -0.1050 nv         1 AX2      -1.068567
      6 N5          -0.0150     1.3730    -0.1180 nb         1 AX2      -0.383000
      7 N9           2.2660     1.3450    -0.1200 nv         1 AX2      -1.068567
      8 N3           1.2110    -0.6720     0.0210 nb         1 AX2      -0.383000
      9 N1          -1.1780    -0.7090     0.0290 nb         1 AX2      -0.383000
     10 HN7          0.9190    -3.1030    -0.0590 hn         1 AX2       0.499000
     11 HN7A        -0.8100    -3.1340    -0.0520 hn         1 AX2       0.499000
     12 HN8         -2.2840     2.2770     0.0750 hn         1 AX2       0.499000
     13 HN8A        -3.1300     0.7730     0.1820 hn         1 AX2       0.499000
     14 HN9          2.2260     2.3450     0.0600 hn         1 AX2       0.499000
     15 HN9A         3.1170     0.8670     0.1620 hn         1 AX2       0.499000
@<TRIPOS>BOND
     1     1     4 1   
     2     1     8 ar  
     3     1     9 ar  
     4     2     6 ar  
     5     2     7 1   
     6     2     8 ar  
     7     3     5 1   
     8     3     6 ar  
     9     3     9 ar  
    10     4    10 1   
    11     4    11 1   
    12     5    12 1   
    13     5    13 1   
    14     7    14 1   
    15     7    15 1   
@<TRIPOS>SUBSTRUCTURE
     1 AX2         1 TEMP              0 ****  ****    0 ROOT
