@<TRIPOS>MOLECULE
AX2
   15    15     1     0     0
SMALL
abcg2


@<TRIPOS>ATOM
      1 C2           0.0260    -1.2940     0.0510 ca         1 AX2       0.453233
      2 C4           1.1170     0.6630    -0.0110 ca         1 AX2       0.453233
      3 C6          -1.1240     0.6290    -0.0070 ca         1 AX2       0.453233
      4 N7           0.0460    -2.6360     0.1210 nv         1 AX2      -1.068567
      5 N8          -2.2960     1.2790    -0.0480 nv         1 AX2      -1.068567
      6 N5          -0.0150     1.3690    -0.0280 nb         1 AX2      -0.383000
      7 N9           2.2660     1.3490    -0.0560 nv         1 AX2      -1.068567
      8 N3           1.2030    -0.6680     0.0310 nb         1 AX2      -0.383000
      9 N1          -1.1700    -0.7040     0.0330 nb         1 AX2      -0.383000
     10 HN7          0.9120    -3.1180    -0.0450 hn         1 AX2       0.499000
     11 HN7A        -0.8050    -3.1440    -0.0430 hn         1 AX2       0.499000
     12 HN8         -2.3150     2.2800     0.0270 hn         1 AX2       0.499000
     13 HN8A        -3.1540     0.7740     0.0800 hn         1 AX2       0.499000
     14 HN9          2.2560     2.3510     0.0060 hn         1 AX2       0.499000
     15 HN9A         3.1430     0.8710     0.0550 hn         1 AX2       0.499000
@<TRIPOS>BOND
     1     1     4 1   
     2     1     8 ar  
     3     1     9 ar  
     4     2     6 ar  
     5     2     7 1   
     6     2     8 ar  
     7     3     5 1   
     8     3     6 ar  
     9     3     9 ar  
    10     4    10 1   
    11     4    11 1   
    12     5    12 1   
    13     5    13 1   
    14     7    14 1   
    15     7    15 1   
@<TRIPOS>SUBSTRUCTURE
     1 AX2         1 TEMP              0 ****  ****    0 ROOT
