@<TRIPOS>MOLECULE
AX3
   22    23     1     0     0
SMALL
bcc


@<TRIPOS>ATOM
      1 CAC         -3.8790     0.4530    -0.1960 cx         1 AX3      -0.134900
      2 CAD         -3.1770    -0.5610     0.6540 cx         1 AX3      -0.134900
      3 CAL         -2.5550    -0.0940    -0.6230 cx         1 AX3       0.188500
      4 NAH         -1.4420     0.7890    -0.5710 nu         1 AX3      -0.846900
      5 CAK         -0.1850     0.3970    -0.2970 ca         1 AX3       0.981900
      6 NAG          0.7550     1.3460    -0.3520 nb         1 AX3      -0.902000
      7 NAF          0.0200    -0.8820     0.0040 nb         1 AX3      -0.902000
      8 CAI          1.2920    -1.1850     0.2750 ca         1 AX3       0.975900
      9 NAA          1.5550    -2.4550     0.6190 nv         1 AX3      -0.956000
     10 NAE          2.3170    -0.3340     0.2520 nb         1 AX3      -0.908000
     11 CAJ          1.9840     0.9180    -0.0710 ca         1 AX3       0.975900
     12 NAB          2.9790     1.8170    -0.1400 nv         1 AX3      -0.956000
     13 HAC         -4.7540     0.1490    -0.7540 hc         1 AX3       0.077200
     14 HACA        -3.9070     1.4770     0.1580 hc         1 AX3       0.077200
     15 HAD         -2.7260    -0.2230     1.5780 hc         1 AX3       0.077200
     16 HADA        -3.5660    -1.5710     0.6830 hc         1 AX3       0.077200
     17 HAL         -2.5580    -0.7970    -1.4510 h1         1 AX3       0.084700
     18 HNAH        -1.5560     1.7350    -0.8940 hn         1 AX3       0.454800
     19 HNAA         0.8440    -3.1550     0.5070 hn         1 AX3       0.442300
     20 HNAB         2.5090    -2.7600     0.6950 hn         1 AX3       0.442300
     21 HNAC         2.7560     2.7930    -0.2190 hn         1 AX3       0.442300
     22 HNAD         3.8880     1.5730     0.2130 hn         1 AX3       0.442300
@<TRIPOS>BOND
     1     1     2 1   
     2     1     3 1   
     3     1    13 1   
     4     1    14 1   
     5     2     3 1   
     6     2    15 1   
     7     2    16 1   
     8     3     4 1   
     9     3    17 1   
    10     4     5 1   
    11     4    18 1   
    12     5     6 ar  
    13     5     7 ar  
    14     6    11 ar  
    15     7     8 ar  
    16     8     9 1   
    17     8    10 ar  
    18     9    19 1   
    19     9    20 1   
    20    10    11 ar  
    21    11    12 1   
    22    12    21 1   
    23    12    22 1   
@<TRIPOS>SUBSTRUCTURE
     1 AX3         1 TEMP              0 ****  ****    0 ROOT
