@<TRIPOS>MOLECULE
AX3
   22    23     1     0     0
SMALL
No Charge or Current Charge


@<TRIPOS>ATOM
      1 CAC         -3.9440     0.4910    -0.3150 cx         1 AX3      -0.134900
      2 CAD         -3.3200    -0.3810     0.7460 cx         1 AX3      -0.134900
      3 CAL         -2.6080    -0.1610    -0.5650 cx         1 AX3       0.188500
      4 NAH         -1.4460     0.6880    -0.5550 nu         1 AX3      -0.902100
      5 CAK         -0.1450     0.3120    -0.2850 ca         1 AX3       0.455900
      6 NAG          0.7620     1.2960    -0.3360 nb         1 AX3      -0.376000
      7 NAF          0.1070    -0.9770    -0.0010 nb         1 AX3      -0.376000
      8 CAI          1.3950    -1.2290     0.2440 ca         1 AX3       0.449900
      9 NAA          1.7160    -2.5030     0.5330 nv         1 AX3      -1.066400
     10 NAE          2.3990    -0.3490     0.2270 nb         1 AX3      -0.382000
     11 CAJ          2.0070     0.8910    -0.0710 ca         1 AX3       0.449900
     12 NAB          2.9670     1.8340    -0.1040 nv         1 AX3      -1.066400
     13 HAC         -4.8030     0.0980    -0.8540 hc         1 AX3       0.077200
     14 HACA        -3.9710     1.5630    -0.1360 hc         1 AX3       0.077200
     15 HAD         -2.9180     0.1030     1.6320 hc         1 AX3       0.077200
     16 HADA        -3.7550    -1.3620     0.9200 hc         1 AX3       0.077200
     17 HAL         -2.5730    -0.9930    -1.2730 h1         1 AX3       0.084700
     18 HNAH        -1.5370     1.6790    -0.7760 hn         1 AX3       0.510000
     19 HNAA         1.0330    -3.2230     0.3130 hn         1 AX3       0.497500
     20 HNAB         2.6950    -2.7730     0.4770 hn         1 AX3       0.497500
     21 HNAC         2.6730     2.8070    -0.0790 hn         1 AX3       0.497500
     22 HNAD         3.8610     1.6180     0.3280 hn         1 AX3       0.497500
@<TRIPOS>BOND
     1     1     2 1   
     2     1     3 1   
     3     1    13 1   
     4     1    14 1   
     5     2     3 1   
     6     2    15 1   
     7     2    16 1   
     8     3     4 1   
     9     3    17 1   
    10     4     5 1   
    11     4    18 1   
    12     5     6 ar  
    13     5     7 ar  
    14     6    11 ar  
    15     7     8 ar  
    16     8     9 1   
    17     8    10 ar  
    18     9    19 1   
    19     9    20 1   
    20    10    11 ar  
    21    11    12 1   
    22    12    21 1   
    23    12    22 1   
@<TRIPOS>SUBSTRUCTURE
     1 AX3         1 TEMP              0 ****  ****    0 ROOT
