@<TRIPOS>MOLECULE
AX4
   28    29     1     0     0
SMALL
abcg2


@<TRIPOS>ATOM
      1 C4           2.3070    17.8280    32.6040 ca         1 AX4       0.289300
      2 C5           1.6730    17.2590    31.5200 ca         1 AX4      -0.350000
      3 C6           1.9410    15.8930    31.3000 ca         1 AX4       0.422900
      4 N1           2.7550    15.1940    32.1030 nb         1 AX4      -0.330000
      5 N3           3.1290    17.1560    33.4200 nb         1 AX4      -0.273000
      6 CAF         -0.3690    20.1530    32.0960 ca         1 AX4      -0.055000
      7 CAD         -1.2440    20.6780    31.1520 ca         1 AX4      -0.128500
      8 CAL         -0.7720    21.2380    29.9640 ca         1 AX4      -0.048300
      9 CAA         -1.7180    21.7920    28.9350 c3         1 AX4      -0.051800
     10 CAE          0.6090    21.2630    29.7480 ca         1 AX4      -0.128500
     11 CAG          1.4910    20.7420    30.6840 ca         1 AX4      -0.055000
     12 CAO          1.0040    20.1780    31.8630 ca         1 AX4      -0.158000
     13 SAK          2.1300    19.5290    33.0780 ss         1 AX4      -0.129300
     14 C2           3.3070    15.8590    33.1270 ca         1 AX4       0.411900
     15 NAC          4.0980    15.1410    33.9700 nv         1 AX4      -1.058900
     16 NAB          1.4030    15.2380    30.2460 nv         1 AX4      -1.081900
     17 H5           1.0140    17.8110    30.8700 ha         1 AX4       0.136000
     18 HAF         -0.7510    19.7200    33.0110 ha         1 AX4       0.128000
     19 HAD         -2.3100    20.6540    31.3430 ha         1 AX4       0.115500
     20 HAA         -2.7300    21.8710    29.3310 hc         1 AX4       0.046033
     21 HAAA        -1.3970    22.7800    28.5990 hc         1 AX4       0.046033
     22 HAAB        -1.7500    21.1460    28.0530 hc         1 AX4       0.046033
     23 HAE          0.9990    21.7000    28.8360 ha         1 AX4       0.115500
     24 HAG          2.5580    20.7680    30.5020 ha         1 AX4       0.128000
     25 HNAC         4.4210    14.2410    33.6570 hn         1 AX4       0.491000
     26 HNAA         4.6900    15.6500    34.6050 hn         1 AX4       0.491000
     27 HNAB         1.4980    14.2370    30.1980 hn         1 AX4       0.492000
     28 HNAD         0.6750    15.6680    29.7010 hn         1 AX4       0.492000
@<TRIPOS>BOND
     1     1     2 ar  
     2     1     5 ar  
     3     1    13 1   
     4     2     3 ar  
     5     2    17 1   
     6     3     4 ar  
     7     3    16 1   
     8     4    14 ar  
     9     5    14 ar  
    10     6     7 ar  
    11     6    12 ar  
    12     6    18 1   
    13     7     8 ar  
    14     7    19 1   
    15     8     9 1   
    16     8    10 ar  
    17     9    20 1   
    18     9    21 1   
    19     9    22 1   
    20    10    11 ar  
    21    10    23 1   
    22    11    12 ar  
    23    11    24 1   
    24    12    13 1   
    25    14    15 1   
    26    15    25 1   
    27    15    26 1   
    28    16    27 1   
    29    16    28 1   
@<TRIPOS>SUBSTRUCTURE
     1 AX4         1 TEMP              0 ****  ****    0 ROOT
