@<TRIPOS>MOLECULE
AX4
   28    29     1     0     0
SMALL
No Charge or Current Charge


@<TRIPOS>ATOM
      1 C4           2.7320    17.9410    32.2590 ca         1 AX4       0.289300
      2 C5           2.3300    17.2900    31.0810 ca         1 AX4      -0.350000
      3 C6           2.1680    15.9100    31.1440 ca         1 AX4       0.422900
      4 N1           2.3810    15.2090    32.2600 nb         1 AX4      -0.330000
      5 N3           2.9570    17.2500    33.3920 nb         1 AX4      -0.273000
      6 CAF          0.2290    19.8060    31.8600 ca         1 AX4      -0.055000
      7 CAD         -0.9290    20.2480    31.1960 ca         1 AX4      -0.128500
      8 CAL         -0.8320    21.1600    30.1270 ca         1 AX4      -0.048300
      9 CAA         -2.0850    21.6340    29.4080 c3         1 AX4      -0.051800
     10 CAE          0.4360    21.6230    29.7280 ca         1 AX4      -0.128500
     11 CAG          1.5950    21.1830    30.3900 ca         1 AX4      -0.055000
     12 CAO          1.4940    20.2700    31.4550 ca         1 AX4      -0.158000
     13 SAK          2.9780    19.7150    32.2910 ss         1 AX4      -0.129300
     14 C2           2.7640    15.9270    33.3220 ca         1 AX4       0.411900
     15 NAC          2.9880    15.2260    34.4570 nv         1 AX4      -1.058900
     16 NAB          1.7820    15.1980    30.0630 nv         1 AX4      -1.081900
     17 H5           2.1560    17.8420    30.1640 ha         1 AX4       0.136000
     18 HAF          0.1400    19.1040    32.6870 ha         1 AX4       0.128000
     19 HAD         -1.9020    19.8810    31.5130 ha         1 AX4       0.115500
     20 HAA         -2.9510    21.6500    30.0800 hc         1 AX4       0.046033
     21 HAAA        -1.9590    22.6490    29.0120 hc         1 AX4       0.046033
     22 HAAB        -2.3250    20.9740    28.5660 hc         1 AX4       0.046033
     23 HAE          0.5250    22.3260    28.9030 ha         1 AX4       0.115500
     24 HAG          2.5700    21.5470    30.0750 ha         1 AX4       0.128000
     25 HNAC         3.0730    14.2150    34.3870 hn         1 AX4       0.491000
     26 HNAA         3.4930    15.6780    35.2150 hn         1 AX4       0.491000
     27 HNAB         1.4740    14.2400    30.2100 hn         1 AX4       0.492000
     28 HNAD         1.3770    15.6910    29.2720 hn         1 AX4       0.492000
@<TRIPOS>BOND
     1     1     2 ar  
     2     1     5 ar  
     3     1    13 1   
     4     2     3 ar  
     5     2    17 1   
     6     3     4 ar  
     7     3    16 1   
     8     4    14 ar  
     9     5    14 ar  
    10     6     7 ar  
    11     6    12 ar  
    12     6    18 1   
    13     7     8 ar  
    14     7    19 1   
    15     8     9 1   
    16     8    10 ar  
    17     9    20 1   
    18     9    21 1   
    19     9    22 1   
    20    10    11 ar  
    21    10    23 1   
    22    11    12 ar  
    23    11    24 1   
    24    12    13 1   
    25    14    15 1   
    26    15    25 1   
    27    15    26 1   
    28    16    27 1   
    29    16    28 1   
@<TRIPOS>SUBSTRUCTURE
     1 AX4         1 TEMP              0 ****  ****    0 ROOT
