@<TRIPOS>MOLECULE
AX5
   28    29     1     0     0
SMALL
abcg2


@<TRIPOS>ATOM
      1 C4          -1.4050    -0.3260    -0.0240 ca         1 AX5       0.299300
      2 C5          -2.3770    -1.3070    -0.0270 ca         1 AX5      -0.341000
      3 C6          -3.7040    -0.8470    -0.0130 ca         1 AX5       0.428900
      4 N1          -3.9930     0.4560     0.0060 nb         1 AX5      -0.336000
      5 N3          -1.6680     0.9730    -0.0060 nb         1 AX5      -0.308000
      6 CAF          3.3270     0.2840    -1.2010 ca         1 AX5      -0.093000
      7 CAD          4.6730    -0.0530    -1.2230 ca         1 AX5      -0.112000
      8 CAC          5.3530    -0.2820    -0.0330 ca         1 AX5      -0.104000
      9 CAE          4.6800    -0.1720     1.1770 ca         1 AX5      -0.112000
     10 CAG          3.3330     0.1640     1.1960 ca         1 AX5      -0.093000
     11 CAN          2.6460     0.4000     0.0080 ca         1 AX5      -0.086300
     12 CAI          1.1850     0.7390     0.0290 c3         1 AX5       0.112900
     13 SAL          0.2770    -0.8380    -0.0500 ss         1 AX5      -0.377300
     14 C2          -2.9650     1.3000     0.0090 ca         1 AX5       0.421900
     15 NAB         -3.2540     2.6180     0.0640 nv         1 AX5      -1.057900
     16 NAA         -4.7390    -1.7030    -0.0410 nv         1 AX5      -1.080900
     17 H5          -2.1400    -2.3620    -0.0430 ha         1 AX5       0.138000
     18 HAD          5.1920    -0.1360    -2.1690 ha         1 AX5       0.113000
     19 HAC          6.4040    -0.5410    -0.0500 ha         1 AX5       0.112000
     20 HAE          5.2040    -0.3490     2.1070 ha         1 AX5       0.113000
     21 HAG          2.8120     0.2510     2.1420 ha         1 AX5       0.116000
     22 HAI          0.9060     1.2630     0.9420 h1         1 AX5       0.081200
     23 HAIA         0.9040     1.3560    -0.8220 h1         1 AX5       0.081200
     24 HNAB        -4.1940     2.9090    -0.1400 hn         1 AX5       0.489000
     25 HNAA        -2.5230     3.2720    -0.1600 hn         1 AX5       0.489000
     26 HNAC        -4.5910    -2.6900     0.0680 hn         1 AX5       0.493500
     27 HNAD        -5.6730    -1.3550     0.0920 hn         1 AX5       0.493500
     28 HAF          2.8010     0.4640    -2.1310 ha         1 AX5       0.116000
@<TRIPOS>BOND
     1     1     2 ar  
     2     1     5 ar  
     3     1    13 1   
     4     2     3 ar  
     5     2    17 1   
     6     3     4 ar  
     7     3    16 1   
     8     4    14 ar  
     9     5    14 ar  
    10     6     7 ar  
    11     6    11 ar  
    12     6    28 1   
    13     7     8 ar  
    14     7    18 1   
    15     8     9 ar  
    16     8    19 1   
    17     9    10 ar  
    18     9    20 1   
    19    10    11 ar  
    20    10    21 1   
    21    11    12 1   
    22    12    13 1   
    23    12    22 1   
    24    12    23 1   
    25    14    15 1   
    26    15    24 1   
    27    15    25 1   
    28    16    26 1   
    29    16    27 1   
@<TRIPOS>SUBSTRUCTURE
     1 AX5         1 TEMP              0 ****  ****    0 ROOT
