@<TRIPOS>MOLECULE
AX5
   28    29     1     0     0
SMALL
No Charge or Current Charge


@<TRIPOS>ATOM
      1 C4          -1.4660    -0.3640    -0.0330 ca         1 AX5       0.299300
      2 C5          -2.4970    -1.3120    -0.0670 ca         1 AX5      -0.341000
      3 C6          -3.8020    -0.8290    -0.0480 ca         1 AX5       0.428900
      4 N1          -4.0890     0.4730     0.0020 nb         1 AX5      -0.336000
      5 N3          -1.7350     0.9540     0.0170 nb         1 AX5      -0.308000
      6 CAF          3.4060     0.2590    -1.2210 ca         1 AX5      -0.093000
      7 CAD          4.7840    -0.0180    -1.2310 ca         1 AX5      -0.112000
      8 CAC          5.4730    -0.2080    -0.0210 ca         1 AX5      -0.104000
      9 CAE          4.7820    -0.1220     1.1990 ca         1 AX5      -0.112000
     10 CAG          3.4030     0.1560     1.2100 ca         1 AX5      -0.093000
     11 CAN          2.7080     0.3490    -0.0000 ca         1 AX5      -0.086300
     12 CAI          1.2160     0.6510     0.0110 c3         1 AX5       0.112900
     13 SAL          0.2340    -0.9170    -0.0580 ss         1 AX5      -0.377300
     14 C2          -3.0310     1.2890     0.0330 ca         1 AX5       0.421900
     15 NAB         -3.3050     2.6100     0.0810 nv         1 AX5      -1.057900
     16 NAA         -4.8630    -1.6660    -0.0770 nv         1 AX5      -1.080900
     17 H5          -2.2810    -2.3740    -0.1090 ha         1 AX5       0.138000
     18 HAD          5.3170    -0.0860    -2.1770 ha         1 AX5       0.113000
     19 HAC          6.5390    -0.4230    -0.0290 ha         1 AX5       0.112000
     20 HAE          5.3130    -0.2710     2.1370 ha         1 AX5       0.113000
     21 HAG          2.8750     0.2180     2.1590 ha         1 AX5       0.116000
     22 HAI          0.9550     1.2020     0.9240 h1         1 AX5       0.081200
     23 HAIA         0.9570     1.2790    -0.8510 h1         1 AX5       0.081200
     24 HNAB        -4.2520     2.9100    -0.1350 hn         1 AX5       0.489000
     25 HNAA        -2.5570     3.2670    -0.1260 hn         1 AX5       0.489000
     26 HNAC        -4.7110    -2.6510     0.1290 hn         1 AX5       0.493500
     27 HNAD        -5.7790    -1.2890     0.1520 hn         1 AX5       0.493500
     28 HAF          2.8790     0.4030    -2.1620 ha         1 AX5       0.116000
@<TRIPOS>BOND
     1     1     2 ar  
     2     1     5 ar  
     3     1    13 1   
     4     2     3 ar  
     5     2    17 1   
     6     3     4 ar  
     7     3    16 1   
     8     4    14 ar  
     9     5    14 ar  
    10     6     7 ar  
    11     6    11 ar  
    12     6    28 1   
    13     7     8 ar  
    14     7    18 1   
    15     8     9 ar  
    16     8    19 1   
    17     9    10 ar  
    18     9    20 1   
    19    10    11 ar  
    20    10    21 1   
    21    11    12 1   
    22    12    13 1   
    23    12    22 1   
    24    12    23 1   
    25    14    15 1   
    26    15    24 1   
    27    15    25 1   
    28    16    26 1   
    29    16    27 1   
@<TRIPOS>SUBSTRUCTURE
     1 AX5         1 TEMP              0 ****  ****    0 ROOT
