@<TRIPOS>MOLECULE
AX6
   32    33     1     0     0
SMALL
No Charge or Current Charge


@<TRIPOS>ATOM
      1 C4          -2.3010    -0.3490     0.0180 ca         1 AX6       0.298300
      2 C5          -3.3030    -1.3280     0.0260 ca         1 AX6      -0.340000
      3 C6          -4.6210    -0.8860     0.0870 ca         1 AX6       0.425900
      4 N1          -4.9460     0.4080     0.1350 nb         1 AX6      -0.335000
      5 N3          -2.6090     0.9610     0.0660 nb         1 AX6      -0.307000
      6 CAA          6.8280    -0.4200     0.8360 c3         1 AX6       0.148900
      7 CAP          4.6280     0.0040    -0.2000 ca         1 AX6       0.147100
      8 CAG          3.8910     0.1760    -1.3820 ca         1 AX6      -0.174500
      9 CAE          2.5070     0.4160    -1.3320 ca         1 AX6      -0.055000
     10 CAF          3.9680     0.0720     1.0460 ca         1 AX6      -0.174500
     11 CAD          2.5830     0.3130     1.0970 ca         1 AX6      -0.055000
     12 CAO          1.8470     0.4870    -0.0900 ca         1 AX6      -0.125300
     13 CAI          0.3480     0.7470    -0.0320 c3         1 AX6       0.123900
     14 SAM         -0.5860    -0.8500    -0.0600 ss         1 AX6      -0.382300
     15 C2          -3.9130     1.2560     0.1230 ca         1 AX6       0.420900
     16 NAC         -4.2260     2.5690     0.1690 nv         1 AX6      -1.057900
     17 NAB         -5.6550    -1.7550     0.0970 nv         1 AX6      -1.076900
     18 H5          -3.0550    -2.3840    -0.0120 ha         1 AX6       0.138000
     19 HAA          6.8100     0.4650     1.4850 h1         1 AX6       0.041033
     20 HAAA         6.5030    -1.2910     1.4190 h1         1 AX6       0.041033
     21 HAAB         7.8650    -0.5890     0.5220 h1         1 AX6       0.041033
     22 HAG          4.3950     0.1230    -2.3440 ha         1 AX6       0.123000
     23 HAE          1.9480     0.5450    -2.2560 ha         1 AX6       0.117000
     24 HAF          4.5080    -0.0580     1.9790 ha         1 AX6       0.123000
     25 HAD          2.0820     0.3610     2.0620 ha         1 AX6       0.117000
     26 HAI          0.1000     1.2960     0.8850 h1         1 AX6       0.080200
     27 HAIA         0.0420     1.3610    -0.8890 h1         1 AX6       0.080200
     28 HNAC        -5.1880     2.8380    -0.0160 hn         1 AX6       0.488500
     29 HNAA        -3.5060     3.2460    -0.0680 hn         1 AX6       0.488500
     30 HNAB        -5.4850    -2.7200    -0.1780 hn         1 AX6       0.491500
     31 HNAD        -6.5910    -1.3920    -0.0680 hn         1 AX6       0.491500
     32 OAL          5.9840    -0.2290    -0.3140 os         1 AX6      -0.341100
@<TRIPOS>BOND
     1     1     2 ar  
     2     1     5 ar  
     3     1    14 1   
     4     2     3 ar  
     5     2    18 1   
     6     3     4 ar  
     7     3    17 1   
     8     4    15 ar  
     9     5    15 ar  
    10     6    19 1   
    11     6    20 1   
    12     6    21 1   
    13     6    32 1   
    14     7     8 ar  
    15     7    10 ar  
    16     7    32 1   
    17     8     9 ar  
    18     8    22 1   
    19     9    12 ar  
    20     9    23 1   
    21    10    11 ar  
    22    10    24 1   
    23    11    12 ar  
    24    11    25 1   
    25    12    13 1   
    26    13    14 1   
    27    13    26 1   
    28    13    27 1   
    29    15    16 1   
    30    16    28 1   
    31    16    29 1   
    32    17    30 1   
    33    17    31 1   
@<TRIPOS>SUBSTRUCTURE
     1 AX6         1 TEMP              0 ****  ****    0 ROOT
