@<TRIPOS>MOLECULE
AX6
   32    33     1     0     0
SMALL
bcc


@<TRIPOS>ATOM
      1 C4          -2.2180    -0.3130     0.0070 ca         1 AX6       0.626600
      2 C5          -3.1570    -1.3270     0.0200 ca         1 AX6      -0.488600
      3 C6          -4.4980    -0.9130     0.0630 ca         1 AX6       0.754200
      4 N1          -4.8310     0.3800     0.0880 nb         1 AX6      -0.861000
      5 N3          -2.5260     0.9770     0.0340 nb         1 AX6      -0.833000
      6 CAA          6.6470    -0.4920     0.8160 c3         1 AX6       0.125700
      7 CAP          4.5500    -0.0210    -0.1880 ca         1 AX6       0.147100
      8 CAG          3.8180     0.1840    -1.3600 ca         1 AX6      -0.192500
      9 CAE          2.4670     0.4670    -1.2950 ca         1 AX6      -0.073000
     10 CAF          3.9030     0.0630     1.0430 ca         1 AX6      -0.192500
     11 CAD          2.5430     0.3500     1.0870 ca         1 AX6      -0.073000
     12 CAO          1.8060     0.5610    -0.0700 ca         1 AX6      -0.125300
     13 CAI          0.3360     0.8440    -0.0090 c3         1 AX6       0.076000
     14 SAM         -0.5210    -0.7650    -0.0540 ss         1 AX6      -0.334400
     15 C2          -3.8330     1.2580     0.0750 ca         1 AX6       0.946900
     16 NAC         -4.1660     2.5660     0.1410 nv         1 AX6      -0.947500
     17 NAB         -5.5030    -1.8040     0.1040 nv         1 AX6      -0.966500
     18 H5          -2.8840    -2.3730    -0.0040 ha         1 AX6       0.156000
     19 HAA          6.6480     0.3860     1.4670 h1         1 AX6       0.041033
     20 HAAA         6.3120    -1.3590     1.3910 h1         1 AX6       0.041033
     21 HAAB         7.6620    -0.6720     0.4710 h1         1 AX6       0.041033
     22 HAG          4.3170     0.1190    -2.3190 ha         1 AX6       0.141000
     23 HAE          1.9170     0.6260    -2.2150 ha         1 AX6       0.135000
     24 HAF          4.4340    -0.0880     1.9730 ha         1 AX6       0.141000
     25 HAD          2.0550     0.4130     2.0530 ha         1 AX6       0.135000
     26 HAI          0.0640     1.3640     0.9080 h1         1 AX6       0.080200
     27 HAIA         0.0060     1.4440    -0.8550 h1         1 AX6       0.080200
     28 HNAC        -5.1200     2.8240    -0.0450 hn         1 AX6       0.433300
     29 HNAA        -3.4630     3.2450    -0.0950 hn         1 AX6       0.433300
     30 HNAB        -5.3250    -2.7790    -0.0650 hn         1 AX6       0.436300
     31 HNAD        -6.4480    -1.4830    -0.0160 hn         1 AX6       0.436300
     32 OAL          5.8600    -0.2880    -0.3410 os         1 AX6      -0.317900
@<TRIPOS>BOND
     1     1     2 ar  
     2     1     5 ar  
     3     1    14 1   
     4     2     3 ar  
     5     2    18 1   
     6     3     4 ar  
     7     3    17 1   
     8     4    15 ar  
     9     5    15 ar  
    10     6    19 1   
    11     6    20 1   
    12     6    21 1   
    13     6    32 1   
    14     7     8 ar  
    15     7    10 ar  
    16     7    32 1   
    17     8     9 ar  
    18     8    22 1   
    19     9    12 ar  
    20     9    23 1   
    21    10    11 ar  
    22    10    24 1   
    23    11    12 ar  
    24    11    25 1   
    25    12    13 1   
    26    13    14 1   
    27    13    26 1   
    28    13    27 1   
    29    15    16 1   
    30    16    28 1   
    31    16    29 1   
    32    17    30 1   
    33    17    31 1   
@<TRIPOS>SUBSTRUCTURE
     1 AX6         1 TEMP              0 ****  ****    0 ROOT
