@<TRIPOS>MOLECULE
AX7
   17    18     1     0     0
SMALL
No Charge or Current Charge


@<TRIPOS>ATOM
      1 NAF          1.1200    -1.1080    -0.0300 na         1 AX7      -0.350600
      2 CAI         -0.1720    -0.6600    -0.0190 ca         1 AX7      -0.084200
      3 CAD         -1.3600    -1.4000     0.0100 ca         1 AX7      -0.112000
      4 CAB         -2.5770    -0.6870     0.0160 ca         1 AX7      -0.107000
      5 CAC         -2.5730     0.7280    -0.0080 ca         1 AX7      -0.127000
      6 CAE         -1.3530     1.4390    -0.0380 ca         1 AX7      -0.066000
      7 CAJ         -0.1530     0.7110    -0.0430 ca         1 AX7       0.101400
      8 NAG          1.1440     1.2030    -0.0700 nc         1 AX7      -0.639100
      9 CAH          1.8400     0.0730    -0.0620 cd         1 AX7       0.628700
     10 NAA          3.1740     0.0810    -0.0790 nv         1 AX7      -1.008200
     11 HNAF         1.4780    -2.0520    -0.0370 hn         1 AX7       0.353000
     12 HAD         -1.3480    -2.4880     0.0290 ha         1 AX7       0.113000
     13 HAB         -3.5210    -1.2270     0.0380 ha         1 AX7       0.111000
     14 HAC         -3.5150     1.2720    -0.0040 ha         1 AX7       0.112000
     15 HAE         -1.3410     2.5250    -0.0560 ha         1 AX7       0.126000
     16 HNAA         3.6540    -0.7480     0.2510 hn         1 AX7       0.473500
     17 HNAB         3.6180     0.9700     0.1230 hn         1 AX7       0.473500
@<TRIPOS>BOND
     1     1     2 1   
     2     1     9 1   
     3     1    11 1   
     4     2     3 ar  
     5     2     7 ar  
     6     3     4 ar  
     7     3    12 1   
     8     4     5 ar  
     9     4    13 1   
    10     5     6 ar  
    11     5    14 1   
    12     6     7 ar  
    13     6    15 1   
    14     7     8 1   
    15     8     9 2   
    16     9    10 1   
    17    10    16 1   
    18    10    17 1   
@<TRIPOS>SUBSTRUCTURE
     1 AX7         1 TEMP              0 ****  ****    0 ROOT
