@<TRIPOS>MOLECULE
AX7
   17    18     1     0     0
SMALL
abcg2


@<TRIPOS>ATOM
      1 NAF          1.1210    -1.0520    -0.0250 na         1 AX7      -0.350600
      2 CAI         -0.2030    -0.6800    -0.0160 ca         1 AX7      -0.084200
      3 CAD         -1.3810    -1.4070     0.0100 ca         1 AX7      -0.112000
      4 CAB         -2.5680    -0.6820     0.0120 ca         1 AX7      -0.107000
      5 CAC         -2.5610     0.7150    -0.0120 ca         1 AX7      -0.127000
      6 CAE         -1.3720     1.4330    -0.0370 ca         1 AX7      -0.066000
      7 CAJ         -0.1740     0.7260    -0.0380 ca         1 AX7       0.101400
      8 NAG          1.1250     1.1780    -0.0560 nc         1 AX7      -0.639100
      9 CAH          1.8590     0.0920    -0.0470 cd         1 AX7       0.628700
     10 NAA          3.2120     0.0630    -0.1170 nv         1 AX7      -1.008200
     11 HNAF         1.4820    -1.9930    -0.0210 hn         1 AX7       0.353000
     12 HAD         -1.3830    -2.4890     0.0270 ha         1 AX7       0.113000
     13 HAB         -3.5110    -1.2120     0.0320 ha         1 AX7       0.111000
     14 HAC         -3.5030     1.2490    -0.0100 ha         1 AX7       0.112000
     15 HAE         -1.3770     2.5160    -0.0540 ha         1 AX7       0.126000
     16 HNAA         3.6790    -0.7510     0.2490 hn         1 AX7       0.473500
     17 HNAB         3.6690     0.9270     0.1250 hn         1 AX7       0.473500
@<TRIPOS>BOND
     1     1     2 1   
     2     1     9 1   
     3     1    11 1   
     4     2     3 ar  
     5     2     7 ar  
     6     3     4 ar  
     7     3    12 1   
     8     4     5 ar  
     9     4    13 1   
    10     5     6 ar  
    11     5    14 1   
    12     6     7 ar  
    13     6    15 1   
    14     7     8 1   
    15     8     9 2   
    16     9    10 1   
    17    10    16 1   
    18    10    17 1   
@<TRIPOS>SUBSTRUCTURE
     1 AX7         1 TEMP              0 ****  ****    0 ROOT
