@<TRIPOS>MOLECULE
AX8
   30    32     1     0     0
SMALL
abcg2


@<TRIPOS>ATOM
      1 CAJ         -1.1380    -0.6190     0.1710 ca         1 AX8      -0.074000
      2 CAO         -2.2450    -0.0370    -0.4240 ca         1 AX8       0.117000
      3 CLAC        -3.0800    -0.8880    -1.6660 cl         1 AX8      -0.166000
      4 CAN         -2.6770     1.2220    -0.0150 ca         1 AX8       0.126000
      5 CLAB        -4.0490     1.9600    -0.7480 cl         1 AX8      -0.168000
      6 CAG         -1.9960     1.8880     0.9900 ca         1 AX8      -0.099000
      7 CAF         -0.8860     1.3020     1.5790 ca         1 AX8      -0.087000
      8 CAM         -0.4480     0.0480     1.1770 ca         1 AX8      -0.108300
      9 CAK          0.7660    -0.5870     1.8080 c3         1 AX8       0.136900
     10 NAS          1.8140    -0.8360     0.8470 na         1 AX8      -0.213600
     11 CAR          2.6180     0.1350     0.2840 ca         1 AX8      -0.080200
     12 CAI          2.7580     1.4880     0.5400 ca         1 AX8      -0.108000
     13 CAE          3.6930     2.1780    -0.2240 ca         1 AX8      -0.106000
     14 CAD          4.4510     1.5280    -1.2000 ca         1 AX8      -0.125000
     15 CAH          4.3010     0.1700    -1.4480 ca         1 AX8      -0.064000
     16 CAQ          3.3680    -0.5350    -0.6950 ca         1 AX8       0.101400
     17 NAL          3.0260    -1.8670    -0.7270 nc         1 AX8      -0.633100
     18 CAP          2.1000    -2.0010     0.1880 cd         1 AX8       0.625700
     19 NAA          1.4140    -3.1480     0.4320 nv         1 AX8      -1.003200
     20 HAJ         -0.8250    -1.6030    -0.1530 ha         1 AX8       0.147000
     21 HAG         -2.3270     2.8680     1.3050 ha         1 AX8       0.134000
     22 HAF         -0.3630     1.8380     2.3610 ha         1 AX8       0.119000
     23 HAK          1.1610     0.0550     2.5970 h1         1 AX8       0.061700
     24 HAKA         0.4960    -1.5240     2.2960 h1         1 AX8       0.061700
     25 HAI          2.1720     1.9980     1.2950 ha         1 AX8       0.113000
     26 HAE          3.8330     3.2380    -0.0570 ha         1 AX8       0.111000
     27 HAD          5.1710     2.0970    -1.7740 ha         1 AX8       0.113000
     28 HAH          4.8910    -0.3290    -2.2060 ha         1 AX8       0.127000
     29 HNAA         1.1190    -3.3270     1.3790 hn         1 AX8       0.470000
     30 HNAB         1.8180    -3.9640     0.0000 hn         1 AX8       0.470000
@<TRIPOS>BOND
     1     1     2 ar  
     2     1     8 ar  
     3     1    20 1   
     4     2     3 1   
     5     2     4 ar  
     6     4     5 1   
     7     4     6 ar  
     8     6     7 ar  
     9     6    21 1   
    10     7     8 ar  
    11     7    22 1   
    12     8     9 1   
    13     9    10 1   
    14     9    23 1   
    15     9    24 1   
    16    10    11 1   
    17    10    18 1   
    18    11    12 ar  
    19    11    16 ar  
    20    12    13 ar  
    21    12    25 1   
    22    13    14 ar  
    23    13    26 1   
    24    14    15 ar  
    25    14    27 1   
    26    15    16 ar  
    27    15    28 1   
    28    16    17 1   
    29    17    18 2   
    30    18    19 1   
    31    19    29 1   
    32    19    30 1   
@<TRIPOS>SUBSTRUCTURE
     1 AX8         1 TEMP              0 ****  ****    0 ROOT
