@<TRIPOS>MOLECULE
AX8
   30    32     1     0     0
SMALL
No Charge or Current Charge


@<TRIPOS>ATOM
      1 CAJ         -0.9260    -0.2670    -0.0800 ca         1 AX8      -0.074000
      2 CAO         -2.0130     0.4040    -0.6650 ca         1 AX8       0.117000
      3 ClAC        -2.5590    -0.0890    -2.2690 cl         1 AX8      -0.166000
      4 CAN         -2.6490     1.4520     0.0300 ca         1 AX8       0.126000
      5 ClAB        -4.0170     2.3160    -0.6750 cl         1 AX8      -0.168000
      6 CAG         -2.1940     1.8210     1.3070 ca         1 AX8      -0.099000
      7 CAF         -1.1050     1.1490     1.8900 ca         1 AX8      -0.087000
      8 CAM         -0.4600     0.1040     1.2000 ca         1 AX8      -0.108300
      9 CAK          0.7270    -0.6130     1.8420 c3         1 AX8       0.136900
     10 NAS          1.8210    -0.9170     0.9030 na         1 AX8      -0.213600
     11 CAR          2.5680     0.0060     0.2190 ca         1 AX8      -0.080200
     12 CAI          2.5630     1.4060     0.3140 ca         1 AX8      -0.108000
     13 CAE          3.4440     2.1240    -0.5210 ca         1 AX8      -0.106000
     14 CAD          4.2960     1.4360    -1.4160 ca         1 AX8      -0.125000
     15 CAH          4.2720     0.0260    -1.4830 ca         1 AX8      -0.064000
     16 CAQ          3.3890    -0.6740    -0.6460 ca         1 AX8       0.101400
     17 NAL          3.2100    -2.0490    -0.5640 nc         1 AX8      -0.633100
     18 CAP          2.2660    -2.1280     0.3670 cd         1 AX8       0.625700
     19 NAA          1.7790    -3.3220     0.7360 nv         1 AX8      -1.003200
     20 HAJ         -0.4470    -1.0760    -0.6270 ha         1 AX8       0.147000
     21 HAG         -2.6850     2.6280     1.8440 ha         1 AX8       0.134000
     22 HAF         -0.7620     1.4460     2.8790 ha         1 AX8       0.119000
     23 HAK          1.1370     0.0060     2.6500 h1         1 AX8       0.061700
     24 HAKA         0.3710    -1.5460     2.2970 h1         1 AX8       0.061700
     25 HAI          1.9040     1.9260     1.0050 ha         1 AX8       0.113000
     26 HAE          3.4680     3.2110    -0.4750 ha         1 AX8       0.111000
     27 HAD          4.9730     1.9960    -2.0570 ha         1 AX8       0.113000
     28 HAH          4.9230    -0.5100    -2.1690 ha         1 AX8       0.127000
     29 HNAA         1.3290    -3.3870     1.6410 hn         1 AX8       0.470000
     30 HNAB         2.3090    -4.1320     0.4360 hn         1 AX8       0.470000
@<TRIPOS>BOND
     1     1     2 ar  
     2     1     8 ar  
     3     1    20 1   
     4     2     3 1   
     5     2     4 ar  
     6     4     5 1   
     7     4     6 ar  
     8     6     7 ar  
     9     6    21 1   
    10     7     8 ar  
    11     7    22 1   
    12     8     9 1   
    13     9    10 1   
    14     9    23 1   
    15     9    24 1   
    16    10    11 1   
    17    10    18 1   
    18    11    12 ar  
    19    11    16 ar  
    20    12    13 ar  
    21    12    25 1   
    22    13    14 ar  
    23    13    26 1   
    24    14    15 ar  
    25    14    27 1   
    26    15    16 ar  
    27    15    28 1   
    28    16    17 1   
    29    17    18 2   
    30    18    19 1   
    31    19    29 1   
    32    19    30 1   
@<TRIPOS>SUBSTRUCTURE
     1 AX8         1 TEMP              0 ****  ****    0 ROOT
