@<TRIPOS>MOLECULE
AX9
   81    84     1     0     0
SMALL
abcg2


@<TRIPOS>ATOM
      1 NB          12.2920     7.2810    33.7120 na         1 AX9      -0.071000
      2 ND          17.4770     9.6320    35.6020 ns         1 AX9      -0.494900
      3 OD          19.2110    11.0910    35.9870 o          1 AX9      -0.572000
      4 C1A         11.3800     6.5270    28.2200 c          1 AX9       0.555200
      5 C1B         11.6200     6.8630    32.6130 cc         1 AX9      -0.159800
      6 C1C         13.1300     8.4960    36.3080 cc         1 AX9      -0.003400
      7 C1D         17.2970     8.2650    35.1910 c5         1 AX9       0.136900
      8 C2A         12.2640     5.3440    28.1320 cc         1 AX9      -0.206400
      9 C2B         10.2960     7.3070    32.7280 cd         1 AX9      -0.140300
     10 C2C         13.5360     9.0640    37.5800 cc         1 AX9       0.007800
     11 C2D         18.7140     7.8070    34.9830 c2         1 AX9      -0.100400
     12 C3A         12.6960     5.0460    29.3730 cd         1 AX9      -0.043200
     13 C3B         10.2050     8.0300    33.9310 cd         1 AX9      -0.041300
     14 C3C         14.8510     8.7300    37.7260 cd         1 AX9      -0.309800
     15 C3D         19.5640     8.7980    35.2760 ce         1 AX9      -0.189400
     16 C4A         12.0870     5.9940    30.3110 cd         1 AX9       0.010600
     17 C4B         11.4710     8.0050    34.5260 cc         1 AX9      -0.145800
     18 C4C         15.2010     7.9720    36.5400 cd         1 AX9       0.408600
     19 C4D         18.7770     9.9950    35.6670 c          1 AX9       0.558200
     20 CAB          8.9770     8.6970    34.4580 c3         1 AX9      -0.002100
     21 CAC         12.6420     9.7730    38.5390 c3         1 AX9      -0.031200
     22 CAD         21.0520     8.8280    35.2040 c3         1 AX9      -0.010200
     23 CBA         12.7680     2.7230    30.3160 c3         1 AX9      -0.086100
     24 CBB          8.7090    10.0460    33.7860 c3         1 AX9      -0.203400
     25 CBC         11.9030     8.7930    39.4510 c3         1 AX9      -0.196400
     26 CBD         21.5560     9.4360    33.8960 c3         1 AX9      -0.084100
     27 CGB          9.7680    11.1080    34.1400 c          1 AX9       0.710000
     28 CGC         10.9640     9.4220    40.5000 c          1 AX9       0.718000
     29 CHA         12.2760     6.0200    31.6440 ce         1 AX9      -0.118200
     30 CHB         11.8890     8.5770    35.7510 ce         1 AX9       0.061800
     31 CHC         16.5560     7.4230    36.2400 c3         1 AX9      -0.094700
     32 CMB          9.1490     6.9790    31.8300 c3         1 AX9      -0.013800
     33 CMC         15.7710     9.0320    38.8600 c3         1 AX9      -0.009900
     34 CMD         19.0140     6.4250    34.5290 c3         1 AX9      -0.044900
     35 NA          11.3040     6.8430    29.5520 ns         1 AX9      -0.405100
     36 NC          14.2000     7.8360    35.7140 nc         1 AX9      -0.638300
     37 O1B         10.3060    11.7170    33.1950 o          1 AX9      -0.734000
     38 O1C         10.5050     8.6320    41.3510 o          1 AX9      -0.741500
     39 O2B          9.9870    11.2780    35.3590 o          1 AX9      -0.734000
     40 O2C         10.7280    10.6440    40.4110 o          1 AX9      -0.741500
     41 OA          10.8260     7.1180    27.3130 o          1 AX9      -0.553000
     42 HNB         13.2720     7.1370    33.9290 hn         1 AX9       0.379000
     43 H1D1        16.7380     8.2150    34.2480 h1         1 AX9       0.080700
     44 HAA1        14.2710     4.2510    30.5640 hc         1 AX9       0.045700
     45 HAA2        14.1820     3.5990    28.9480 hc         1 AX9       0.045700
     46 HAB2         9.0510     8.8430    35.5360 hc         1 AX9       0.037700
     47 HAB1         8.1190     8.0370    34.3020 hc         1 AX9       0.037700
     48 HAC1        13.2290    10.4660    39.1480 hc         1 AX9       0.070200
     49 HAC2        11.9200    10.3900    37.9990 hc         1 AX9       0.070200
     50 HAD2        21.4510     7.8190    35.3160 hc         1 AX9       0.043700
     51 HAD1        21.4410     9.4060    36.0460 hc         1 AX9       0.043700
     52 HBA3        13.4340     1.9110    30.6080 hc         1 AX9       0.036033
     53 HBA2        12.1720     2.9950    31.1870 hc         1 AX9       0.036033
     54 HBA1        12.0900     2.3440    29.5510 hc         1 AX9       0.036033
     55 HBB2         7.7290    10.4070    34.1190 hc         1 AX9       0.017200
     56 HBB1         8.6430     9.9120    32.7030 hc         1 AX9       0.017200
     57 HBC1        11.3130     8.1040    38.8360 hc         1 AX9       0.015700
     58 HBC2        12.6310     8.1590    39.9670 hc         1 AX9       0.015700
     59 HBD3        22.6460     9.4740    33.8790 hc         1 AX9       0.032033
     60 HBD2        21.2280     8.8450    33.0400 hc         1 AX9       0.032033
     61 HBD1        21.1860    10.4520    33.7620 hc         1 AX9       0.032033
     62 HHA1        13.0230     5.3400    32.0390 ha         1 AX9       0.175000
     63 HHB1        11.1320     9.1410    36.2810 ha         1 AX9       0.255000
     64 HHC2        16.4590     6.4030    35.8590 hc         1 AX9       0.050700
     65 HHC1        17.1600     7.3810    37.1490 hc         1 AX9       0.050700
     66 HMA2        13.2740     3.8800    26.9410 hc         1 AX9       0.038367
     67 HMA1        11.6350     4.2450    26.4130 hc         1 AX9       0.038367
     68 HMA3        12.9260     5.3910    26.1020 hc         1 AX9       0.038367
     69 HMB1         8.2330     6.8620    32.4090 hc         1 AX9       0.031367
     70 HMB3         8.9490     7.7600    31.0920 hc         1 AX9       0.031367
     71 HMB2         9.3120     6.0490    31.2880 hc         1 AX9       0.031367
     72 HMC2        15.2840     9.6560    39.6090 hc         1 AX9       0.028033
     73 HMC1        16.1060     8.1220    39.3630 hc         1 AX9       0.028033
     74 HMC3        16.6690     9.5570    38.5270 hc         1 AX9       0.028033
     75 HMD2        20.0810     6.2680    34.3810 hc         1 AX9       0.042367
     76 HMD3        18.6650     5.6860    35.2530 hc         1 AX9       0.042367
     77 HMD1        18.5060     6.2070    33.5880 hc         1 AX9       0.042367
     78 HNA         10.8570     7.6760    29.8980 hn         1 AX9       0.363500
     79 CAA         13.5710     3.9150    29.7950 c3         1 AX9      -0.027200
     80 HND         16.7130    10.2630    35.7850 hn         1 AX9       0.360500
     81 CMA         12.5430     4.6790    26.8350 c3         1 AX9      -0.019900
@<TRIPOS>BOND
     1     1     5 1   
     2     1    17 1   
     3     1    42 1   
     4     2     7 1   
     5     2    19 1   
     6     2    80 1   
     7     3    19 2   
     8     4     8 1   
     9     4    35 1   
    10     4    41 2   
    11     5     9 2   
    12     5    29 1   
    13     6    10 1   
    14     6    30 2   
    15     6    36 1   
    16     7    11 1   
    17     7    31 1   
    18     7    43 1   
    19     8    12 2   
    20     8    81 1   
    21     9    13 1   
    22     9    32 1   
    23    10    14 2   
    24    10    21 1   
    25    11    15 2   
    26    11    34 1   
    27    12    16 1   
    28    12    79 1   
    29    13    17 2   
    30    13    20 1   
    31    14    18 1   
    32    14    33 1   
    33    15    19 1   
    34    15    22 1   
    35    16    29 2   
    36    16    35 1   
    37    17    30 1   
    38    18    31 1   
    39    18    36 2   
    40    20    24 1   
    41    20    46 1   
    42    20    47 1   
    43    21    25 1   
    44    21    48 1   
    45    21    49 1   
    46    22    26 1   
    47    22    50 1   
    48    22    51 1   
    49    23    52 1   
    50    23    53 1   
    51    23    54 1   
    52    23    79 1   
    53    24    27 1   
    54    24    55 1   
    55    24    56 1   
    56    25    28 1   
    57    25    57 1   
    58    25    58 1   
    59    26    59 1   
    60    26    60 1   
    61    26    61 1   
    62    27    37 1   
    63    27    39 1   
    64    28    38 1   
    65    28    40 1   
    66    29    62 1   
    67    30    63 1   
    68    31    64 1   
    69    31    65 1   
    70    32    69 1   
    71    32    70 1   
    72    32    71 1   
    73    33    72 1   
    74    33    73 1   
    75    33    74 1   
    76    34    75 1   
    77    34    76 1   
    78    34    77 1   
    79    35    78 1   
    80    44    79 1   
    81    45    79 1   
    82    66    81 1   
    83    67    81 1   
    84    68    81 1   
@<TRIPOS>SUBSTRUCTURE
     1 AX9         1 TEMP              0 ****  ****    0 ROOT
