@<TRIPOS>MOLECULE
AX9
   81    84     1     0     0
SMALL
No Charge or Current Charge


@<TRIPOS>ATOM
      1 NB          12.0950     7.2770    33.7580 na         1 AX9      -0.071000
      2 ND          17.8540     9.7850    36.1490 ns         1 AX9      -0.494900
      3 OD          19.7540    10.6130    37.1220 o          1 AX9      -0.572000
      4 C1A         11.4040     6.4730    28.2630 c          1 AX9       0.555200
      5 C1B         11.3560     6.6750    32.7440 cc         1 AX9      -0.159800
      6 C1C         13.1610     8.7310    36.2160 cc         1 AX9      -0.003400
      7 C1D         17.4610     8.7260    35.2010 c5         1 AX9       0.136900
      8 C2A         12.2770     5.2880    28.2190 cc         1 AX9      -0.206400
      9 C2B         10.0790     7.1580    32.8800 cd         1 AX9      -0.140300
     10 C2C         13.5900     9.0730    37.5340 cc         1 AX9       0.007800
     11 C2D         18.8430     8.1730    34.7960 c2         1 AX9      -0.100400
     12 C3A         12.5830     4.8690    29.5050 cd         1 AX9      -0.043200
     13 C3B         10.0490     8.0620    33.9780 cd         1 AX9      -0.041300
     14 C3C         14.9120     8.7290    37.6090 cd         1 AX9      -0.309800
     15 C3D         19.7930     8.8310    35.4860 ce         1 AX9      -0.189400
     16 C4A         11.8930     5.7770    30.3880 cd         1 AX9       0.010600
     17 C4B         11.3110     8.1380    34.5170 cc         1 AX9      -0.145800
     18 C4C         15.2310     8.1860    36.3200 cd         1 AX9       0.408600
     19 C4D         19.1940     9.8430    36.3580 c          1 AX9       0.558200
     20 CAB          8.8190     8.7960    34.4720 c3         1 AX9      -0.002100
     21 CAC         12.7150     9.6910    38.5980 c3         1 AX9      -0.031200
     22 CAD         21.2980     8.6090    35.4350 c3         1 AX9      -0.010200
     23 CBA         12.6380     2.4600    30.2940 c3         1 AX9      -0.086100
     24 CBB          8.4990    10.0940    33.6920 c3         1 AX9      -0.203400
     25 CBC         11.7810     8.6650    39.2840 c3         1 AX9      -0.196400
     26 CBD         21.9550     9.2690    34.2090 c3         1 AX9      -0.084100
     27 CGB          9.6180    11.1360    33.8700 c          1 AX9       0.710000
     28 CGC         10.9390     9.3620    40.3660 c          1 AX9       0.718000
     29 CHA         11.9170     5.7550    31.7620 ce         1 AX9      -0.118200
     30 CHB         11.8070     8.9150    35.6620 ce         1 AX9       0.061800
     31 CHC         16.5620     7.6570    35.8560 c3         1 AX9      -0.094700
     32 CMB          8.8920     6.7870    32.0220 c3         1 AX9      -0.013800
     33 CMC         15.8330     8.8860    38.7970 c3         1 AX9      -0.009900
     34 CMD         19.0150     7.0560    33.7850 c3         1 AX9      -0.044900
     35 NA          11.2410     6.6760    29.5910 ns         1 AX9      -0.405100
     36 NC          14.1940     8.1860    35.4890 nc         1 AX9      -0.638300
     37 O1B         10.4860    11.2120    33.0150 o          1 AX9      -0.734000
     38 O1C         11.4010     9.4430    41.4940 o          1 AX9      -0.741500
     39 O2B          9.5930    11.8350    34.8720 o          1 AX9      -0.734000
     40 O2C          9.8710     9.8540    40.0350 o          1 AX9      -0.741500
     41 OA          10.9250     7.1370    27.3560 o          1 AX9      -0.553000
     42 HNB         13.0880     7.1400    33.9320 hn         1 AX9       0.379000
     43 H1D1        16.9350     9.1440    34.3310 h1         1 AX9       0.080700
     44 HAA1        14.1130     3.9830    30.7310 hc         1 AX9       0.045700
     45 HAA2        14.1260     3.4350    29.0700 hc         1 AX9       0.045700
     46 HAB2         8.9210     9.0350    35.5360 hc         1 AX9       0.037700
     47 HAB1         7.9480     8.1320    34.4120 hc         1 AX9       0.037700
     48 HAC1        13.3440    10.1660    39.3610 hc         1 AX9       0.070200
     49 HAC2        12.1160    10.5010    38.1640 hc         1 AX9       0.070200
     50 HAD2        21.5200     7.5350    35.4220 hc         1 AX9       0.043700
     51 HAD1        21.7760     9.0010    36.3420 hc         1 AX9       0.043700
     52 HBA3        13.3040     1.6340    30.5690 hc         1 AX9       0.036033
     53 HBA2        11.9890     2.6800    31.1490 hc         1 AX9       0.036033
     54 HBA1        12.0090     2.1330    29.4580 hc         1 AX9       0.036033
     55 HBB2         7.5710    10.4630    34.1450 hc         1 AX9       0.017200
     56 HBB1         8.3880     9.8130    32.6380 hc         1 AX9       0.017200
     57 HBC1        11.1370     8.2630    38.4930 hc         1 AX9       0.015700
     58 HBC2        12.4440     7.9150    39.7350 hc         1 AX9       0.015700
     59 HBD3        23.0360     9.0840    34.2080 hc         1 AX9       0.032033
     60 HBD2        21.5370     8.8670    33.2780 hc         1 AX9       0.032033
     61 HBD1        21.7910    10.3530    34.2210 hc         1 AX9       0.032033
     62 HHA1        12.5720     4.9980    32.1940 ha         1 AX9       0.175000
     63 HHB1        11.0970     9.5210    36.2230 ha         1 AX9       0.255000
     64 HHC2        16.3910     6.8460    35.1380 hc         1 AX9       0.050700
     65 HHC1        17.0910     7.1920    36.6950 hc         1 AX9       0.050700
     66 HMA2        12.8000     3.6250    26.9440 hc         1 AX9       0.038367
     67 HMA1        11.9890     4.9490    26.0990 hc         1 AX9       0.038367
     68 HMA3        13.6840     5.1230    26.5940 hc         1 AX9       0.038367
     69 HMB1         8.0110     6.5670    32.6350 hc         1 AX9       0.031367
     70 HMB3         8.6310     7.6040    31.3380 hc         1 AX9       0.031367
     71 HMB2         9.0930     5.8950    31.4180 hc         1 AX9       0.031367
     72 HMC2        15.3780     8.4660    39.7020 hc         1 AX9       0.028033
     73 HMC1        16.7930     8.3800    38.6470 hc         1 AX9       0.028033
     74 HMC3        16.0430     9.9450    38.9890 hc         1 AX9       0.028033
     75 HMD2        20.0690     6.8690    33.5510 hc         1 AX9       0.042367
     76 HMD3        18.5910     6.1170    34.1600 hc         1 AX9       0.042367
     77 HMD1        18.5080     7.3000    32.8440 hc         1 AX9       0.042367
     78 HNA         10.6820     7.4500    29.9270 hn         1 AX9       0.363500
     79 CAA         13.4590     3.7020    29.8980 c3         1 AX9      -0.027200
     80 HND         17.2400    10.4090    36.6570 hn         1 AX9       0.360500
     81 CMA         12.7100     4.7170    26.8920 c3         1 AX9      -0.019900
@<TRIPOS>BOND
     1     1     5 1   
     2     1    17 1   
     3     1    42 1   
     4     2     7 1   
     5     2    19 1   
     6     2    80 1   
     7     3    19 2   
     8     4     8 1   
     9     4    35 1   
    10     4    41 2   
    11     5     9 2   
    12     5    29 1   
    13     6    10 1   
    14     6    30 2   
    15     6    36 1   
    16     7    11 1   
    17     7    31 1   
    18     7    43 1   
    19     8    12 2   
    20     8    81 1   
    21     9    13 1   
    22     9    32 1   
    23    10    14 2   
    24    10    21 1   
    25    11    15 2   
    26    11    34 1   
    27    12    16 1   
    28    12    79 1   
    29    13    17 2   
    30    13    20 1   
    31    14    18 1   
    32    14    33 1   
    33    15    19 1   
    34    15    22 1   
    35    16    29 2   
    36    16    35 1   
    37    17    30 1   
    38    18    31 1   
    39    18    36 2   
    40    20    24 1   
    41    20    46 1   
    42    20    47 1   
    43    21    25 1   
    44    21    48 1   
    45    21    49 1   
    46    22    26 1   
    47    22    50 1   
    48    22    51 1   
    49    23    52 1   
    50    23    53 1   
    51    23    54 1   
    52    23    79 1   
    53    24    27 1   
    54    24    55 1   
    55    24    56 1   
    56    25    28 1   
    57    25    57 1   
    58    25    58 1   
    59    26    59 1   
    60    26    60 1   
    61    26    61 1   
    62    27    37 1   
    63    27    39 1   
    64    28    38 1   
    65    28    40 1   
    66    29    62 1   
    67    30    63 1   
    68    31    64 1   
    69    31    65 1   
    70    32    69 1   
    71    32    70 1   
    72    32    71 1   
    73    33    72 1   
    74    33    73 1   
    75    33    74 1   
    76    34    75 1   
    77    34    76 1   
    78    34    77 1   
    79    35    78 1   
    80    44    79 1   
    81    45    79 1   
    82    66    81 1   
    83    67    81 1   
    84    68    81 1   
@<TRIPOS>SUBSTRUCTURE
     1 AX9         1 TEMP              0 ****  ****    0 ROOT
