@<TRIPOS>MOLECULE
AXA
   54    58     1     0     0
SMALL
No Charge or Current Charge


@<TRIPOS>ATOM
      1 CAH         -5.0050     0.7020     0.7510 ca         1 AXA      -0.108000
      2 CAY         -6.0210    -0.1620     0.3100 ca         1 AXA      -0.079000
      3 N1          -6.7220    -0.9960     1.2080 ns         1 AXA      -0.143000
      4 CAV         -7.7140    -1.8750     0.8340 c          1 AXA       0.542000
      5 OAC         -8.5670    -2.2950     1.6080 o          1 AXA      -0.523000
      6 CAM         -7.6840    -2.2000    -0.6730 c6         1 AXA       0.072600
      7 OAS         -7.4150    -1.0170    -1.4770 os         1 AXA      -0.324100
      8 CAZ         -6.4070    -0.1720    -1.0480 ca         1 AXA       0.090100
      9 CAG         -5.7850     0.6940    -1.9590 ca         1 AXA      -0.104000
     10 CAF         -4.7620     1.5560    -1.5200 ca         1 AXA      -0.094000
     11 CAX         -4.3680     1.5630    -0.1660 ca         1 AXA      -0.110300
     12 CAL         -3.2620     2.4950     0.3030 c3         1 AXA       0.150300
     13 N2          -1.9600     1.8380     0.2290 ns         1 AXA      -0.474900
     14 CAW         -0.7600     2.4240     0.5870 c          1 AXA       0.524800
     15 OAD         -0.7180     3.5800     1.0050 o          1 AXA      -0.596100
     16 CBB          0.4460     1.5220     0.4140 cc         1 AXA       0.441900
     17 N3           0.3600     0.2590    -0.0390 nd         1 AXA      -0.609100
     18 N4           1.6350     2.1100     0.7800 ns         1 AXA      -0.393400
     19 CBD          2.8490     1.5230     0.7210 c          1 AXA       0.591600
     20 OAE          3.8440     2.1040     1.1200 o          1 AXA      -0.518000
     21 CBF          2.7800     0.1560     0.1710 cc         1 AXA      -0.219600
     22 CBC          3.8840    -0.7440    -0.0510 cc         1 AXA      -0.031300
     23 CBE          1.5730    -0.4250    -0.1500 cd         1 AXA       0.054400
     24 SAT          1.7210    -2.1090    -0.6800 ss         1 AXA       0.268000
     25 CBA          3.4700    -2.0030    -0.4290 cd         1 AXA      -0.218300
     26 CAJ          4.3850    -3.1990    -0.4960 c6         1 AXA      -0.005100
     27 CAI          5.5670    -2.9760     0.4720 c6         1 AXA      -0.070400
     28 CAK          6.2860    -1.6540     0.1210 c6         1 AXA      -0.077400
     29 CBG          5.3570    -0.3910     0.1770 c6         1 AXA       0.016600
     30 CAN          5.8510     0.6580    -0.8760 c3         1 AXA      -0.157400
     31 CAU          7.2760     1.1530    -0.6120 c          1 AXA       0.604100
     32 OAB          7.5700     1.8850     0.3170 o          1 AXA      -0.601100
     33 N5           8.2200     0.7590    -1.4930 nt         1 AXA      -0.613000
     34 HAH         -4.7150     0.7110     1.8000 ha         1 AXA       0.126000
     35 HN1         -6.6450    -0.7790     2.1940 hn         1 AXA       0.168000
     36 HAM         -6.8830    -2.9340    -0.8320 h1         1 AXA       0.086200
     37 HAMA        -8.6460    -2.6420    -0.9630 h1         1 AXA       0.086200
     38 HAG         -6.0880     0.6930    -3.0030 ha         1 AXA       0.136000
     39 HAF         -4.2770     2.2190    -2.2340 ha         1 AXA       0.122000
     40 HAL         -3.2440     3.3980    -0.3210 h1         1 AXA       0.067200
     41 HALA        -3.4490     2.8040     1.3400 h1         1 AXA       0.067200
     42 HN2         -1.9120     0.8810    -0.1060 hn         1 AXA       0.350500
     43 HN4          1.6150     3.0540     1.1390 hn         1 AXA       0.358500
     44 HAJ          3.8490    -4.1180    -0.2220 hc         1 AXA       0.052700
     45 HAJA         4.7560    -3.3430    -1.5200 hc         1 AXA       0.052700
     46 HAI          5.2040    -2.9440     1.5090 hc         1 AXA       0.048700
     47 HAIA         6.2700    -3.8180     0.4070 hc         1 AXA       0.048700
     48 HAK          7.1460    -1.5100     0.7910 hc         1 AXA       0.046700
     49 HAKA         6.7100    -1.7670    -0.8860 hc         1 AXA       0.046700
     50 HBG          5.4650     0.0610     1.1730 hc         1 AXA       0.096700
     51 HAN          5.8020     0.2060    -1.8740 hc         1 AXA       0.065700
     52 HANA         5.1990     1.5350    -0.8820 hc         1 AXA       0.065700
     53 HN5          7.9730     0.1630    -2.2690 hn         1 AXA       0.310500
     54 HN5A         9.1720     1.0690    -1.3660 hn         1 AXA       0.310500
@<TRIPOS>BOND
     1     1     2 ar  
     2     1    11 ar  
     3     1    34 1   
     4     2     3 1   
     5     2     8 ar  
     6     3     4 1   
     7     3    35 1   
     8     4     5 2   
     9     4     6 1   
    10     6     7 1   
    11     6    36 1   
    12     6    37 1   
    13     7     8 1   
    14     8     9 ar  
    15     9    10 ar  
    16     9    38 1   
    17    10    11 ar  
    18    10    39 1   
    19    11    12 1   
    20    12    13 1   
    21    12    40 1   
    22    12    41 1   
    23    13    14 1   
    24    13    42 1   
    25    14    15 2   
    26    14    16 1   
    27    16    17 2   
    28    16    18 1   
    29    17    23 1   
    30    18    19 1   
    31    18    43 1   
    32    19    20 2   
    33    19    21 1   
    34    21    22 1   
    35    21    23 2   
    36    22    25 2   
    37    22    29 1   
    38    23    24 1   
    39    24    25 1   
    40    25    26 1   
    41    26    27 1   
    42    26    44 1   
    43    26    45 1   
    44    27    28 1   
    45    27    46 1   
    46    27    47 1   
    47    28    29 1   
    48    28    48 1   
    49    28    49 1   
    50    29    30 1   
    51    29    50 1   
    52    30    31 1   
    53    30    51 1   
    54    30    52 1   
    55    31    32 2   
    56    31    33 1   
    57    33    53 1   
    58    33    54 1   
@<TRIPOS>SUBSTRUCTURE
     1 AXA         1 TEMP              0 ****  ****    0 ROOT
