@<TRIPOS>MOLECULE
AXA
   54    58     1     0     0
SMALL
abcg2


@<TRIPOS>ATOM
      1 CAH         -4.5630     0.8960     0.4240 ca         1 AXA      -0.108000
      2 CAY         -5.5760    -0.0460     0.4160 ca         1 AXA      -0.079000
      3 N1          -5.8820    -0.8170     1.5350 ns         1 AXA      -0.143000
      4 CAV         -6.6400    -1.9350     1.4730 c          1 AXA       0.542000
      5 OAC         -6.8740    -2.6430     2.4310 o          1 AXA      -0.523000
      6 CAM         -7.1300    -2.2680     0.0780 c6         1 AXA       0.072600
      7 OAS         -7.3680    -1.1200    -0.7130 os         1 AXA      -0.324100
      8 CAZ         -6.3570    -0.2200    -0.7300 ca         1 AXA       0.090100
      9 CAG         -6.1180     0.5480    -1.8530 ca         1 AXA      -0.104000
     10 CAF         -5.1050     1.5000    -1.8330 ca         1 AXA      -0.094000
     11 CAX         -4.3210     1.6810    -0.7020 ca         1 AXA      -0.110300
     12 CAL         -3.2080     2.6910    -0.6830 c3         1 AXA       0.150300
     13 N2          -1.9250     2.0250    -0.5750 ns         1 AXA      -0.474900
     14 CAW         -0.8950     2.5010     0.1180 c          1 AXA       0.524800
     15 OAD         -0.8730     3.5350     0.7660 o          1 AXA      -0.596100
     16 CBB          0.3310     1.6230     0.0690 cc         1 AXA       0.441900
     17 N3           0.3260     0.5220    -0.6020 nd         1 AXA      -0.609100
     18 N4           1.3930     2.0680     0.7670 ns         1 AXA      -0.393400
     19 CBD          2.6150     1.4140     0.8670 c          1 AXA       0.591600
     20 OAE          3.4930     1.8600     1.5830 o          1 AXA      -0.518000
     21 CBF          2.6540     0.2070     0.0720 cc         1 AXA      -0.219600
     22 CBC          3.7100    -0.7520    -0.0910 cc         1 AXA      -0.031300
     23 CBE          1.4840    -0.1700    -0.5690 cd         1 AXA       0.054400
     24 SAT          1.6430    -1.7010    -1.3290 ss         1 AXA       0.268000
     25 CBA          3.2820    -1.8380    -0.7960 cd         1 AXA      -0.218300
     26 CAJ          4.0710    -3.0830    -1.0270 c6         1 AXA      -0.005100
     27 CAI          5.1440    -3.1740     0.0510 c6         1 AXA      -0.070400
     28 CAK          5.9540    -1.8870     0.0770 c6         1 AXA      -0.077400
     29 CBG          5.1280    -0.6290     0.4050 c6         1 AXA       0.016600
     30 CAN          5.8070     0.5970    -0.2240 c3         1 AXA      -0.157400
     31 CAU          7.2130     0.8020     0.3020 c          1 AXA       0.604100
     32 OAB          7.4650     0.7560     1.4970 o          1 AXA      -0.601100
     33 N5           8.1420     1.0700    -0.6280 nt         1 AXA      -0.613000
     34 HAH         -3.9640     1.0240     1.3190 ha         1 AXA       0.126000
     35 HN1         -5.4700    -0.5740     2.4260 hn         1 AXA       0.168000
     36 HAM         -6.3910    -2.9260    -0.3980 h1         1 AXA       0.086200
     37 HAMA        -8.0700    -2.8110     0.1480 h1         1 AXA       0.086200
     38 HAG         -6.7280     0.4100    -2.7360 ha         1 AXA       0.136000
     39 HAF         -4.9250     2.0990    -2.7170 ha         1 AXA       0.122000
     40 HAL         -3.2440     3.3080    -1.5840 h1         1 AXA       0.067200
     41 HALA        -3.3130     3.3650     0.1680 h1         1 AXA       0.067200
     42 HN2         -1.7780     1.1790    -1.1060 hn         1 AXA       0.350500
     43 HN4          1.2820     2.9340     1.2840 hn         1 AXA       0.358500
     44 HAJ          3.4210    -3.9590    -1.0080 hc         1 AXA       0.052700
     45 HAJA         4.5380    -3.0630    -2.0170 hc         1 AXA       0.052700
     46 HAI          4.6770    -3.3530     1.0240 hc         1 AXA       0.048700
     47 HAIA         5.8000    -4.0230    -0.1470 hc         1 AXA       0.048700
     48 HAK          6.7760    -1.9620     0.7890 hc         1 AXA       0.046700
     49 HAKA         6.4140    -1.7650    -0.9100 hc         1 AXA       0.046700
     50 HBG          5.1020    -0.4850     1.4880 hc         1 AXA       0.096700
     51 HAN          5.7990     0.4970    -1.3120 hc         1 AXA       0.065700
     52 HANA         5.2500     1.5040     0.0180 hc         1 AXA       0.065700
     53 HN5          7.9300     1.0580    -1.6090 hn         1 AXA       0.310500
     54 HN5A         9.1000     1.2280    -0.3620 hn         1 AXA       0.310500
@<TRIPOS>BOND
     1     1     2 ar  
     2     1    11 ar  
     3     1    34 1   
     4     2     3 1   
     5     2     8 ar  
     6     3     4 1   
     7     3    35 1   
     8     4     5 2   
     9     4     6 1   
    10     6     7 1   
    11     6    36 1   
    12     6    37 1   
    13     7     8 1   
    14     8     9 ar  
    15     9    10 ar  
    16     9    38 1   
    17    10    11 ar  
    18    10    39 1   
    19    11    12 1   
    20    12    13 1   
    21    12    40 1   
    22    12    41 1   
    23    13    14 1   
    24    13    42 1   
    25    14    15 2   
    26    14    16 1   
    27    16    17 2   
    28    16    18 1   
    29    17    23 1   
    30    18    19 1   
    31    18    43 1   
    32    19    20 2   
    33    19    21 1   
    34    21    22 1   
    35    21    23 2   
    36    22    25 2   
    37    22    29 1   
    38    23    24 1   
    39    24    25 1   
    40    25    26 1   
    41    26    27 1   
    42    26    44 1   
    43    26    45 1   
    44    27    28 1   
    45    27    46 1   
    46    27    47 1   
    47    28    29 1   
    48    28    48 1   
    49    28    49 1   
    50    29    30 1   
    51    29    50 1   
    52    30    31 1   
    53    30    51 1   
    54    30    52 1   
    55    31    32 2   
    56    31    33 1   
    57    33    53 1   
    58    33    54 1   
@<TRIPOS>SUBSTRUCTURE
     1 AXA         1 TEMP              0 ****  ****    0 ROOT
