@<TRIPOS>MOLECULE
AXB
   58    63     1     0     0
SMALL
bcc


@<TRIPOS>ATOM
      1 N1           7.4150     0.0690    -2.8480 nv         1 AXB      -0.846600
      2 CAZ          7.7610    -0.7620    -1.8760 cc         1 AXB      -0.009200
      3 CBF          8.9680    -1.5640    -1.7050 c          1 AXB       0.475300
      4 OAD          9.9870    -1.7260    -2.3460 o          1 AXB      -0.492100
      5 CBG          8.3900    -2.0840    -0.4250 c          1 AXB       0.485300
      6 OAE          8.7360    -2.8690     0.4330 o          1 AXB      -0.496100
      7 CBD          7.2140    -1.2330    -0.6680 cd         1 AXB      -0.013200
      8 N2           6.0950    -1.0170     0.0110 nh         1 AXB      -0.650400
      9 CAM          5.7460    -1.8140     1.1770 c6         1 AXB       0.228800
     10 CAK          5.4280    -0.8970     2.3420 c6         1 AXB      -0.053100
     11 CAP          5.0670    -0.1280    -0.4900 c6         1 AXB       0.277100
     12 CAY          4.2430     0.4870     0.6130 ca         1 AXB      -0.099300
     13 CAJ          3.2880     1.4370     0.2620 ca         1 AXB      -0.104000
     14 CAX          4.4100     0.1350     1.9490 ca         1 AXB      -0.046300
     15 CAI          3.6130     0.7550     2.9110 ca         1 AXB      -0.126000
     16 CAH          2.6720     1.7050     2.5570 ca         1 AXB      -0.103000
     17 CAW          2.5010     2.0570     1.2200 ca         1 AXB      -0.120300
     18 CAO          1.4610     3.0630     0.8160 c3         1 AXB       0.153300
     19 N3           0.1910     2.3970     0.5810 ns         1 AXB      -0.537900
     20 CAV         -0.8540     3.0340     0.0690 c          1 AXB       0.585800
     21 OAB         -0.8790     4.2100    -0.2620 o          1 AXB      -0.598100
     22 CBB         -2.0870     2.1820    -0.1000 cc         1 AXB       0.453900
     23 N4          -2.0840     0.9440     0.2630 nd         1 AXB      -0.611100
     24 CBH         -3.2510     0.2960     0.0690 cd         1 AXB       0.211300
     25 SAU         -3.4620    -1.3530     0.4960 ss         1 AXB       0.018200
     26 CBA         -5.1030    -1.3210    -0.0570 cd         1 AXB      -0.075400
     27 CAQ         -5.9250    -2.5630     0.0390 c6         1 AXB      -0.114300
     28 SBK         -7.6660    -2.1300     0.0560 s6         1 AXB       1.015000
     29 OAF         -8.4500    -3.3280    -0.2290 o          1 AXB      -0.580300
     30 OAG         -7.9460    -1.3800     1.2790 o          1 AXB      -0.580300
     31 CAN         -7.7130    -1.0080    -1.3280 c6         1 AXB      -0.189600
     32 CAL         -6.8520     0.2180    -1.0600 c6         1 AXB       0.003900
     33 CBC         -5.4780    -0.1080    -0.5510 cc         1 AXB      -0.028300
     34 CBI         -4.4040     0.8330    -0.4720 cc         1 AXB      -0.225600
     35 CBE         -4.3870     2.2200    -0.8720 c          1 AXB       0.741100
     36 OAC         -5.3020     2.8570    -1.3570 o          1 AXB      -0.596500
     37 N5          -3.1500     2.8100    -0.6360 ns         1 AXB      -0.457400
     38 HN1          8.0270     0.1880    -3.6380 hn         1 AXB       0.438800
     39 HN1A         6.5170     0.5160    -2.9020 hn         1 AXB       0.438800
     40 HAM          4.8790    -2.4390     0.9390 h1         1 AXB       0.063700
     41 HAMA         6.5710    -2.4780     1.4190 h1         1 AXB       0.063700
     42 HAK          5.0590    -1.4890     3.1810 hc         1 AXB       0.067200
     43 HAKA         6.3470    -0.4090     2.6820 hc         1 AXB       0.067200
     44 HAP          5.5400     0.6810    -1.0460 h1         1 AXB       0.048700
     45 HAPA         4.4070    -0.6600    -1.1850 h1         1 AXB       0.048700
     46 HAJ          3.1640     1.7040    -0.7830 ha         1 AXB       0.132000
     47 HAI          3.7340     0.4830     3.9530 ha         1 AXB       0.138000
     48 HAH          2.0660     2.1750     3.3220 ha         1 AXB       0.139000
     49 HAO          1.3420     3.8220     1.5930 h1         1 AXB       0.063700
     50 HAOA         1.7690     3.5790    -0.0950 h1         1 AXB       0.063700
     51 HN3          0.0890     1.4230     0.8300 hn         1 AXB       0.353500
     52 HAQ         -5.7620    -3.2350    -0.8070 h1         1 AXB       0.112200
     53 HAQA        -5.7380    -3.1220     0.9590 h1         1 AXB       0.112200
     54 HAN         -7.3690    -1.5700    -2.1990 h1         1 AXB       0.107200
     55 HANA        -8.7580    -0.7360    -1.4830 h1         1 AXB       0.107200
     56 HAL         -6.7830     0.7820    -1.9900 hc         1 AXB       0.088700
     57 HALA        -7.3540     0.8730    -0.3450 hc         1 AXB       0.088700
     58 HN5         -3.0410     3.7880    -0.8820 hn         1 AXB       0.361500
@<TRIPOS>BOND
     1     1     2 1   
     2     1    38 1   
     3     1    39 1   
     4     2     3 1   
     5     2     7 2   
     6     3     4 2   
     7     3     5 1   
     8     5     6 2   
     9     5     7 1   
    10     7     8 1   
    11     8     9 1   
    12     8    11 1   
    13     9    10 1   
    14     9    40 1   
    15     9    41 1   
    16    10    14 1   
    17    10    42 1   
    18    10    43 1   
    19    11    12 1   
    20    11    44 1   
    21    11    45 1   
    22    12    13 ar  
    23    12    14 ar  
    24    13    17 ar  
    25    13    46 1   
    26    14    15 ar  
    27    15    16 ar  
    28    15    47 1   
    29    16    17 ar  
    30    16    48 1   
    31    17    18 1   
    32    18    19 1   
    33    18    49 1   
    34    18    50 1   
    35    19    20 1   
    36    19    51 1   
    37    20    21 2   
    38    20    22 1   
    39    22    23 2   
    40    22    37 1   
    41    23    24 1   
    42    24    25 1   
    43    24    34 2   
    44    25    26 1   
    45    26    27 1   
    46    26    33 2   
    47    27    28 1   
    48    27    52 1   
    49    27    53 1   
    50    28    29 2   
    51    28    30 2   
    52    28    31 1   
    53    31    32 1   
    54    31    54 1   
    55    31    55 1   
    56    32    33 1   
    57    32    56 1   
    58    32    57 1   
    59    33    34 1   
    60    34    35 1   
    61    35    36 2   
    62    35    37 1   
    63    37    58 1   
@<TRIPOS>SUBSTRUCTURE
     1 AXB         1 TEMP              0 ****  ****    0 ROOT
