@<TRIPOS>MOLECULE
AXB
   58    63     1     0     0
SMALL
No Charge or Current Charge


@<TRIPOS>ATOM
      1 N1           7.3800    -0.2080    -3.0190 nv         1 AXB      -0.957000
      2 CAZ          7.7860    -1.0150    -1.9620 cc         1 AXB      -0.009200
      3 CBF          8.9950    -1.8850    -1.9090 c          1 AXB       0.475300
      4 OAD          9.9380    -2.1710    -2.6490 o          1 AXB      -0.492100
      5 CBG          8.5320    -2.2850    -0.4890 c          1 AXB       0.485300
      6 OAE          8.9540    -3.0320     0.3960 o          1 AXB      -0.496100
      7 CBD          7.3630    -1.3690    -0.6840 cd         1 AXB      -0.013200
      8 N2           6.2460    -0.9890     0.0920 nh         1 AXB      -0.650400
      9 CAM          5.9080    -1.6920     1.3570 c6         1 AXB       0.228800
     10 CAK          5.5850    -0.6720     2.4650 c6         1 AXB      -0.053100
     11 CAP          5.1970    -0.0680    -0.4300 c6         1 AXB       0.277100
     12 CAY          4.3340     0.6070     0.6520 ca         1 AXB      -0.099300
     13 CAJ          3.3440     1.5290     0.2600 ca         1 AXB      -0.086000
     14 CAX          4.5170     0.3260     2.0240 ca         1 AXB      -0.046300
     15 CAI          3.7180     0.9740     2.9840 ca         1 AXB      -0.108000
     16 CAH          2.7340     1.8920     2.5850 ca         1 AXB      -0.085000
     17 CAW          2.5420     2.1750     1.2200 ca         1 AXB      -0.120300
     18 CAO          1.4740     3.1650     0.7860 c3         1 AXB       0.153300
     19 N3           0.1990     2.4900     0.5610 ns         1 AXB      -0.470900
     20 CAV         -0.9660     3.1190     0.1590 c          1 AXB       0.518800
     21 OAB         -0.9950     4.3320    -0.0410 o          1 AXB      -0.598100
     22 CBB         -2.1500     2.1860     0.0000 cc         1 AXB       0.453900
     23 N4          -2.0780     0.8630     0.2320 nd         1 AXB      -0.611100
     24 CBH         -3.2650     0.1520     0.0320 cd         1 AXB       0.066400
     25 SAU         -3.4420    -1.5940     0.2800 ss         1 AXB       0.308000
     26 CBA         -5.1520    -1.4630    -0.1820 cd         1 AXB      -0.220300
     27 CAQ         -6.0860    -2.6660    -0.1840 c6         1 AXB      -0.225100
     28 SBK         -7.8570    -2.2750    -0.1970 s6         1 AXB       1.095000
     29 OAF         -8.5970    -3.4090    -0.7670 o          1 AXB      -0.509500
     30 OAG         -8.2440    -1.7240     1.1090 o          1 AXB      -0.509500
     31 CAN         -7.8080    -0.9340    -1.4070 c6         1 AXB      -0.300400
     32 CAL         -6.9090     0.2520    -0.9610 c6         1 AXB       0.003900
     33 CBC         -5.5120    -0.1720    -0.5200 cc         1 AXB      -0.028300
     34 CBI         -4.4280     0.7630    -0.3770 cc         1 AXB      -0.225600
     35 CBE         -4.4920     2.2170    -0.6100 c          1 AXB       0.598600
     36 OAC         -5.4740     2.8590    -0.9480 o          1 AXB      -0.521000
     37 N5          -3.3040     2.8190    -0.3970 ns         1 AXB      -0.390400
     38 HN1          7.9060    -0.1780    -3.8970 hn         1 AXB       0.494000
     39 HN1A         6.5020     0.3110    -2.9890 hn         1 AXB       0.494000
     40 HAM          5.0350    -2.3430     1.2000 h1         1 AXB       0.063700
     41 HAMA         6.7360    -2.3340     1.6900 h1         1 AXB       0.063700
     42 HAK          5.2600    -1.2070     3.3670 hc         1 AXB       0.067200
     43 HAKA         6.4990    -0.1270     2.7360 hc         1 AXB       0.067200
     44 HAP          5.6700     0.7300    -1.0190 h1         1 AXB       0.048700
     45 HAPA         4.5340    -0.6200    -1.1130 h1         1 AXB       0.048700
     46 HAJ          3.1980     1.7450    -0.7970 ha         1 AXB       0.114000
     47 HAI          3.8590     0.7640     4.0420 ha         1 AXB       0.120000
     48 HAH          2.1200     2.3830     3.3370 ha         1 AXB       0.121000
     49 HAO          1.3410     3.9340     1.5580 h1         1 AXB       0.063700
     50 HAOA         1.7820     3.6660    -0.1420 h1         1 AXB       0.063700
     51 HN3          0.1430     1.4870     0.7070 hn         1 AXB       0.353500
     52 HAQ         -5.9260    -3.2780    -1.0800 h1         1 AXB       0.112200
     53 HAQA        -5.9370    -3.2980     0.7000 h1         1 AXB       0.112200
     54 HAN         -7.4290    -1.3870    -2.3320 h1         1 AXB       0.107200
     55 HANA        -8.8470    -0.6160    -1.5580 h1         1 AXB       0.107200
     56 HAL         -6.8530     0.9530    -1.8040 hc         1 AXB       0.088700
     57 HALA        -7.4020     0.8010    -0.1450 hc         1 AXB       0.088700
     58 HN5         -3.2800     3.8190    -0.5430 hn         1 AXB       0.361500
@<TRIPOS>BOND
     1     1     2 1   
     2     1    38 1   
     3     1    39 1   
     4     2     3 1   
     5     2     7 2   
     6     3     4 2   
     7     3     5 1   
     8     5     6 2   
     9     5     7 1   
    10     7     8 1   
    11     8     9 1   
    12     8    11 1   
    13     9    10 1   
    14     9    40 1   
    15     9    41 1   
    16    10    14 1   
    17    10    42 1   
    18    10    43 1   
    19    11    12 1   
    20    11    44 1   
    21    11    45 1   
    22    12    13 ar  
    23    12    14 ar  
    24    13    17 ar  
    25    13    46 1   
    26    14    15 ar  
    27    15    16 ar  
    28    15    47 1   
    29    16    17 ar  
    30    16    48 1   
    31    17    18 1   
    32    18    19 1   
    33    18    49 1   
    34    18    50 1   
    35    19    20 1   
    36    19    51 1   
    37    20    21 2   
    38    20    22 1   
    39    22    23 2   
    40    22    37 1   
    41    23    24 1   
    42    24    25 1   
    43    24    34 2   
    44    25    26 1   
    45    26    27 1   
    46    26    33 2   
    47    27    28 1   
    48    27    52 1   
    49    27    53 1   
    50    28    29 2   
    51    28    30 2   
    52    28    31 1   
    53    31    32 1   
    54    31    54 1   
    55    31    55 1   
    56    32    33 1   
    57    32    56 1   
    58    32    57 1   
    59    33    34 1   
    60    34    35 1   
    61    35    36 2   
    62    35    37 1   
    63    37    58 1   
@<TRIPOS>SUBSTRUCTURE
     1 AXB         1 TEMP              0 ****  ****    0 ROOT
