@<TRIPOS>MOLECULE
AXC
   39    43     1     0     0
SMALL
abcg2


@<TRIPOS>ATOM
      1 CAN        -19.4100   -36.8480    15.5930 c3         1 AXC      -0.099400
      2 CAL        -18.7220   -37.1660    16.8690 cc         1 AXC       0.535300
      3 NAM        -17.4270   -37.5990    16.9290 nc         1 AXC      -0.395300
      4 NAK        -19.3170   -37.0480    18.0490 nd         1 AXC      -0.565100
      5 NAI        -18.3390   -37.4320    18.9150 na         1 AXC       0.041900
      6 CAJ        -17.2010   -37.7610    18.2230 cd         1 AXC      -0.012000
      7 CAE        -16.0660   -38.1820    18.9770 ca         1 AXC      -0.067000
      8 CAF        -14.8380   -38.5410    18.4020 ca         1 AXC      -0.056000
      9 CAA        -13.7930   -38.9310    19.2120 ca         1 AXC      -0.114000
     10 CAB        -13.9540   -38.9700    20.6060 ca         1 AXC      -0.087000
     11 CAC        -15.1550   -38.6210    21.1870 ca         1 AXC      -0.080000
     12 CAD        -16.2360   -38.2190    20.3850 ca         1 AXC       0.283000
     13 NAG        -17.4240   -37.8720    20.9990 nc         1 AXC      -0.690000
     14 CAH        -18.4260   -37.4890    20.2880 cd         1 AXC       0.662800
     15 SAO        -19.9730   -36.9960    20.9550 ss         1 AXC      -0.285300
     16 CAP        -19.5990   -37.1160    22.7330 c3         1 AXC       0.025300
     17 CAQ        -18.5750   -36.1540    23.2320 cc         1 AXC       0.420800
     18 NAU        -17.7210   -36.4240    24.1920 nd         1 AXC      -0.563100
     19 CAT        -16.9800   -35.2620    24.3660 ca         1 AXC       0.068400
     20 CAY        -15.9320   -34.9790    25.2430 ca         1 AXC      -0.049000
     21 CAX        -15.3590   -33.7160    25.1850 ca         1 AXC      -0.135000
     22 CAW        -15.8130   -32.7460    24.2740 ca         1 AXC      -0.092000
     23 CAV        -16.8550   -33.0080    23.3940 ca         1 AXC      -0.115000
     24 CAS        -17.4250   -34.2750    23.4580 ca         1 AXC      -0.070200
     25 NAR        -18.4480   -34.8800    22.7570 na         1 AXC      -0.317600
     26 HAN1       -20.4330   -36.5280    15.7810 hc         1 AXC       0.060367
     27 HAN2       -18.8780   -36.0530    15.0670 hc         1 AXC       0.060367
     28 HAN3       -19.4230   -37.7240    14.9430 hc         1 AXC       0.060367
     29 HAF        -14.7270   -38.5060    17.3270 ha         1 AXC       0.138000
     30 HAA        -12.8440   -39.2090    18.7730 ha         1 AXC       0.122000
     31 HAB        -13.1260   -39.2780    21.2320 ha         1 AXC       0.122000
     32 HAC        -15.2900   -38.6460    22.2600 ha         1 AXC       0.143000
     33 HAP1       -20.5690   -36.9220    23.1990 h1         1 AXC       0.107200
     34 HAP2       -19.2920   -38.1280    22.9800 h1         1 AXC       0.107200
     35 HAR        -18.9890   -34.4710    22.0110 hn         1 AXC       0.363000
     36 HAY        -15.5800   -35.7250    25.9440 ha         1 AXC       0.128000
     37 HAX        -14.5440   -33.4690    25.8530 ha         1 AXC       0.114000
     38 HAW        -15.3400   -31.7730    24.2590 ha         1 AXC       0.113000
     39 HAV        -17.2050   -32.2620    22.6920 ha         1 AXC       0.118000
@<TRIPOS>BOND
     1     1     2 1   
     2     1    26 1   
     3     1    27 1   
     4     1    28 1   
     5     2     3 1   
     6     2     4 2   
     7     3     6 2   
     8     4     5 1   
     9     5     6 1   
    10     5    14 1   
    11     6     7 1   
    12     7     8 ar  
    13     7    12 ar  
    14     8     9 ar  
    15     8    29 1   
    16     9    10 ar  
    17     9    30 1   
    18    10    11 ar  
    19    10    31 1   
    20    11    12 ar  
    21    11    32 1   
    22    12    13 1   
    23    13    14 2   
    24    14    15 1   
    25    15    16 1   
    26    16    17 1   
    27    16    33 1   
    28    16    34 1   
    29    17    18 2   
    30    17    25 1   
    31    18    19 1   
    32    19    20 ar  
    33    19    24 ar  
    34    20    21 ar  
    35    20    36 1   
    36    21    22 ar  
    37    21    37 1   
    38    22    23 ar  
    39    22    38 1   
    40    23    24 ar  
    41    23    39 1   
    42    24    25 1   
    43    25    35 1   
@<TRIPOS>SUBSTRUCTURE
     1 AXC         1 TEMP              0 ****  ****    0 ROOT
