@<TRIPOS>MOLECULE
AXC
   39    43     1     0     0
SMALL
No Charge or Current Charge


@<TRIPOS>ATOM
      1 CAN        -19.2560   -36.6370    15.6030 c3         1 AXC      -0.099400
      2 CAL        -18.6690   -37.0360    16.9230 cc         1 AXC       0.535300
      3 NAM        -17.3750   -37.4960    16.9830 nc         1 AXC      -0.395300
      4 NAK        -19.3470   -36.9650    18.0650 nd         1 AXC      -0.565100
      5 NAI        -18.3700   -37.4350    18.9050 na         1 AXC       0.041900
      6 CAJ        -17.2200   -37.7390    18.2650 cd         1 AXC      -0.012000
      7 CAE        -16.0750   -38.2350    18.9850 ca         1 AXC      -0.067000
      8 CAF        -14.8590   -38.5610    18.3550 ca         1 AXC      -0.056000
      9 CAA        -13.7860   -39.0380    19.1250 ca         1 AXC      -0.114000
     10 CAB        -13.9350   -39.1850    20.5140 ca         1 AXC      -0.087000
     11 CAC        -15.1560   -38.8560    21.1310 ca         1 AXC      -0.080000
     12 CAD        -16.2460   -38.3760    20.3810 ca         1 AXC       0.283000
     13 NAG        -17.4420   -38.0650    21.0790 nc         1 AXC      -0.690000
     14 CAH        -18.4530   -37.5970    20.3120 cd         1 AXC       0.662800
     15 SAO        -19.9920   -37.1590    21.0890 ss         1 AXC      -0.285300
     16 CAP        -19.6170   -37.2240    22.9120 c3         1 AXC       0.025300
     17 CAQ        -18.6030   -36.1970    23.3510 cc         1 AXC       0.420800
     18 NAU        -17.7140   -36.3730    24.3510 nd         1 AXC      -0.563100
     19 CAT        -17.0130   -35.1710    24.3920 ca         1 AXC       0.068400
     20 CAY        -15.9600   -34.8120    25.2470 ca         1 AXC      -0.049000
     21 CAX        -15.3930   -33.5250    25.1070 ca         1 AXC      -0.135000
     22 CAW        -15.8830   -32.6270    24.1270 ca         1 AXC      -0.092000
     23 CAV        -16.9450   -33.0110    23.2800 ca         1 AXC      -0.115000
     24 CAS        -17.4750   -34.2940    23.4540 ca         1 AXC      -0.070200
     25 NAR        -18.4840   -34.9230    22.7950 na         1 AXC      -0.317600
     26 HAN1       -20.2910   -36.2970    15.7160 hc         1 AXC       0.060367
     27 HAN2       -18.6770   -35.8210    15.1560 hc         1 AXC       0.060367
     28 HAN3       -19.2490   -37.4830    14.9070 hc         1 AXC       0.060367
     29 HAF        -14.7480   -38.4450    17.2790 ha         1 AXC       0.138000
     30 HAA        -12.8430   -39.2930    18.6470 ha         1 AXC       0.122000
     31 HAB        -13.1060   -39.5540    21.1140 ha         1 AXC       0.122000
     32 HAC        -15.2620   -38.9710    22.2060 ha         1 AXC       0.143000
     33 HAP1       -20.5440   -37.0540    23.4710 h1         1 AXC       0.107200
     34 HAP2       -19.2470   -38.2230    23.1690 h1         1 AXC       0.107200
     35 HAR        -19.0530   -34.5480    22.0480 hn         1 AXC       0.363000
     36 HAY        -15.5900   -35.5080    25.9950 ha         1 AXC       0.128000
     37 HAX        -14.5750   -33.2220    25.7570 ha         1 AXC       0.114000
     38 HAW        -15.4410   -31.6380    24.0270 ha         1 AXC       0.113000
     39 HAV        -17.3340   -32.3340    22.5230 ha         1 AXC       0.118000
@<TRIPOS>BOND
     1     1     2 1   
     2     1    26 1   
     3     1    27 1   
     4     1    28 1   
     5     2     3 1   
     6     2     4 2   
     7     3     6 2   
     8     4     5 1   
     9     5     6 1   
    10     5    14 1   
    11     6     7 1   
    12     7     8 ar  
    13     7    12 ar  
    14     8     9 ar  
    15     8    29 1   
    16     9    10 ar  
    17     9    30 1   
    18    10    11 ar  
    19    10    31 1   
    20    11    12 ar  
    21    11    32 1   
    22    12    13 1   
    23    13    14 2   
    24    14    15 1   
    25    15    16 1   
    26    16    17 1   
    27    16    33 1   
    28    16    34 1   
    29    17    18 2   
    30    17    25 1   
    31    18    19 1   
    32    19    20 ar  
    33    19    24 ar  
    34    20    21 ar  
    35    20    36 1   
    36    21    22 ar  
    37    21    37 1   
    38    22    23 ar  
    39    22    38 1   
    40    23    24 ar  
    41    23    39 1   
    42    24    25 1   
    43    25    35 1   
@<TRIPOS>SUBSTRUCTURE
     1 AXC         1 TEMP              0 ****  ****    0 ROOT
