@<TRIPOS>MOLECULE
AXD
   57    59     1     0     0
SMALL
abcg2


@<TRIPOS>ATOM
      1 N1           0.4420    -1.3600     2.8740 n7         1 AXD      -0.877400
      2 C2          -0.3090    -0.9520     1.6860 c6         1 AXD       0.204200
      3 C3           0.5160    -0.1640     0.6600 c6         1 AXD      -0.098400
      4 C4           1.6530    -0.9820     0.0730 c6         1 AXD       0.217300
      5 N5           1.1690    -2.2170    -0.5240 nh         1 AXD      -0.789300
      6 C6           0.3470    -3.0350     0.3460 c6         1 AXD       0.217300
      7 C7          -0.7780    -2.2280     0.9850 c6         1 AXD      -0.098400
      8 C8           2.3090     1.3670     5.6060 c5         1 AXD       0.199800
      9 N9           2.3760    -0.0860     5.6920 n          1 AXD      -0.418800
     10 C10          3.1910    -0.5370     6.8270 c5         1 AXD       0.075700
     11 C11          3.7340     0.7690     7.4220 c5         1 AXD      -0.098400
     12 C12          3.6100     1.7860     6.2970 c5         1 AXD      -0.083400
     13 C13          2.3860    -1.3560     7.8420 c3         1 AXD       0.133800
     14 N14          3.1380    -1.7590     9.0160 n8         1 AXD      -0.993200
     15 C15          1.9180    -0.9360     4.7520 c          1 AXD       0.604100
     16 O16          2.1510    -2.1350     4.7950 o          1 AXD      -0.586100
     17 C17          1.1100    -0.3240     3.6170 c3         1 AXD       0.102800
     18 C18          1.8980    -2.7980    -1.5370 ca         1 AXD       0.567900
     19 C19          1.7560    -4.1550    -1.8900 ca         1 AXD      -0.192000
     20 C20          2.4650    -4.6650    -2.9610 ca         1 AXD      -0.082600
     21 C21          3.3230    -3.8170    -3.6600 ca         1 AXD      -0.171000
     22 C22          3.4230    -2.5100    -3.2240 ca         1 AXD       0.326900
     23 N23          2.7430    -2.0080    -2.2010 nb         1 AXD      -0.779000
     24 C26         -1.5240    -0.1340     2.1150 c3         1 AXD      -0.080100
     25 C27          2.3150    -6.1350    -3.3580 c          1 AXD       0.712600
     26 O28          2.9680    -6.5030    -4.3510 o          1 AXD      -0.715000
     27 O29          1.5560    -6.8290    -2.6560 o          1 AXD      -0.715000
     28 HN1          1.1100    -2.0860     2.6530 hn         1 AXD       0.448000
     29 H31          0.9270     0.7480     1.0990 hc         1 AXD       0.047700
     30 H32         -0.1410     0.1600    -0.1520 hc         1 AXD       0.047700
     31 H41          2.1610    -0.4020    -0.6900 h1         1 AXD       0.046450
     32 H42          2.4050    -1.2000     0.8480 h1         1 AXD       0.046450
     33 H61          0.9600    -3.5360     1.1100 h1         1 AXD       0.046450
     34 H62         -0.1230    -3.8290    -0.2310 h1         1 AXD       0.046450
     35 H71         -1.4920    -1.9560     0.2030 hc         1 AXD       0.047700
     36 H72         -1.3100    -2.8690     1.6920 hc         1 AXD       0.047700
     37 H8           2.3020     1.6990     4.5660 h1         1 AXD       0.078700
     38 H10          4.0140    -1.1510     6.4460 h1         1 AXD       0.063700
     39 H111         4.7580     0.6620     7.7770 hc         1 AXD       0.051200
     40 H112         3.1260     1.0830     8.2760 hc         1 AXD       0.051200
     41 H121         3.5900     2.8190     6.6400 hc         1 AXD       0.058200
     42 H122         4.4260     1.6760     5.5820 hc         1 AXD       0.058200
     43 H131         1.9920    -2.2510     7.3610 h1         1 AXD       0.072200
     44 H132         1.5240    -0.7630     8.1630 h1         1 AXD       0.072200
     45 H141         3.4880    -0.9450     9.5050 hn         1 AXD       0.389500
     46 H142         3.9540    -2.2910     8.7380 hn         1 AXD       0.389500
     47 H171         1.7970     0.2980     3.0190 h1         1 AXD       0.041700
     48 H172         0.3750     0.3670     4.0390 h1         1 AXD       0.041700
     49 H19          1.1090    -4.8240    -1.3440 ha         1 AXD       0.137000
     50 H21          3.8990    -4.1650    -4.5040 ha         1 AXD       0.134000
     51 H22          4.0940    -1.8200    -3.7270 h4         1 AXD      -0.014900
     52 H25         -0.7230     2.7120     7.3220 ha         1 AXD       0.254000
     53 H261        -2.1270    -0.6860     2.8380 hc         1 AXD       0.032700
     54 H262        -1.2400     0.8180     2.5680 hc         1 AXD       0.032700
     55 H263        -2.1540     0.0980     1.2540 hc         1 AXD       0.032700
     56 C24          1.1180     1.8940     6.2800 c1         1 AXD      -0.163100
     57 C25          0.1410     2.3290     6.8280 c1         1 AXD      -0.224000
@<TRIPOS>BOND
     1     1     2 1   
     2     1    17 1   
     3     1    28 1   
     4     2     3 1   
     5     2     7 1   
     6     2    24 1   
     7     3     4 1   
     8     3    29 1   
     9     3    30 1   
    10     4     5 1   
    11     4    31 1   
    12     4    32 1   
    13     5     6 1   
    14     5    18 1   
    15     6     7 1   
    16     6    33 1   
    17     6    34 1   
    18     7    35 1   
    19     7    36 1   
    20     8     9 1   
    21     8    12 1   
    22     8    37 1   
    23     8    56 1   
    24     9    10 1   
    25     9    15 1   
    26    10    11 1   
    27    10    13 1   
    28    10    38 1   
    29    11    12 1   
    30    11    39 1   
    31    11    40 1   
    32    12    41 1   
    33    12    42 1   
    34    13    14 1   
    35    13    43 1   
    36    13    44 1   
    37    14    45 1   
    38    14    46 1   
    39    15    16 2   
    40    15    17 1   
    41    17    47 1   
    42    17    48 1   
    43    18    19 ar  
    44    18    23 ar  
    45    19    20 ar  
    46    19    49 1   
    47    20    21 ar  
    48    20    25 1   
    49    21    22 ar  
    50    21    50 1   
    51    22    23 ar  
    52    22    51 1   
    53    24    53 1   
    54    24    54 1   
    55    24    55 1   
    56    25    26 1   
    57    25    27 1   
    58    52    57 1   
    59    56    57 3   
@<TRIPOS>SUBSTRUCTURE
     1 AXD         1 TEMP              0 ****  ****    0 ROOT
