@<TRIPOS>MOLECULE
AXD
   57    59     1     0     0
SMALL
No Charge or Current Charge


@<TRIPOS>ATOM
      1 N1           0.5020    -1.2730     2.7490 n7         1 AXD      -0.877400
      2 C2          -0.2800    -0.8250     1.5660 c6         1 AXD       0.204200
      3 C3           0.6060    -0.0800     0.5290 c6         1 AXD      -0.098400
      4 C4           1.6870    -0.9970    -0.0920 c6         1 AXD       0.217300
      5 N5           1.0840    -2.2210    -0.6980 nh         1 AXD      -0.789300
      6 C6           0.1980    -2.9810     0.2280 c6         1 AXD       0.217300
      7 C7          -0.8830    -2.0710     0.8650 c6         1 AXD      -0.098400
      8 C8           2.3690     1.4340     5.7960 c5         1 AXD       0.199800
      9 N9           2.3870    -0.0450     5.8880 n          1 AXD      -0.418800
     10 C10          3.2130    -0.5470     7.0220 c5         1 AXD       0.075700
     11 C11          3.5020     0.7650     7.8130 c5         1 AXD      -0.098400
     12 C12          3.5900     1.8120     6.6780 c5         1 AXD      -0.083400
     13 C13          2.4820    -1.6080     7.8970 c3         1 AXD       0.133800
     14 N14          3.2970    -2.0540     9.0600 n8         1 AXD      -0.993200
     15 C15          2.0710    -0.8590     4.7750 c          1 AXD       0.604100
     16 O16          2.4750    -2.0170     4.7160 o          1 AXD      -0.586100
     17 C17          1.1570    -0.2580     3.6480 c3         1 AXD       0.102800
     18 C18          1.7230    -2.8730    -1.7700 ca         1 AXD       0.567900
     19 C19          1.9470    -4.2640    -1.7960 ca         1 AXD      -0.192000
     20 C20          2.5870    -4.8580    -2.9080 ca         1 AXD      -0.082600
     21 C21          2.9680    -3.9860    -3.9510 ca         1 AXD      -0.171000
     22 C22          2.7060    -2.6120    -3.8400 ca         1 AXD       0.326900
     23 N23          2.0960    -2.0580    -2.7720 nb         1 AXD      -0.779000
     24 C26         -1.4350     0.1010     2.0540 c3         1 AXD      -0.080100
     25 C27          2.8520    -6.3560    -2.9790 c          1 AXD       0.712600
     26 O28          3.4170    -6.8030    -3.9680 o          1 AXD      -0.715000
     27 O29          2.4910    -7.0590    -2.0450 o          1 AXD      -0.715000
     28 HN1          1.2280    -1.9260     2.4320 hn         1 AXD       0.448000
     29 H31          1.0800     0.8020     0.9760 hc         1 AXD       0.047700
     30 H32         -0.0290     0.3050    -0.2810 hc         1 AXD       0.047700
     31 H41          2.2380    -0.4090    -0.8400 h1         1 AXD       0.046450
     32 H42          2.4150    -1.2830     0.6820 h1         1 AXD       0.046450
     33 H61          0.7960    -3.4550     1.0200 h1         1 AXD       0.046450
     34 H62         -0.3190    -3.7860    -0.3150 h1         1 AXD       0.046450
     35 H71         -1.5780    -1.7510     0.0760 hc         1 AXD       0.047700
     36 H72         -1.4800    -2.6570     1.5760 hc         1 AXD       0.047700
     37 H8           2.5170     1.7950     4.7690 h1         1 AXD       0.078700
     38 H10          4.1470    -0.9800     6.6370 h1         1 AXD       0.063700
     39 H111         4.4250     0.7070     8.3990 hc         1 AXD       0.051200
     40 H112         2.6900     1.0090     8.5090 hc         1 AXD       0.051200
     41 H121         3.5530     2.8440     7.0440 hc         1 AXD       0.058200
     42 H122         4.5250     1.7010     6.1160 hc         1 AXD       0.058200
     43 H131         2.2390    -2.4840     7.2790 h1         1 AXD       0.072200
     44 H132         1.5350    -1.1830     8.2610 h1         1 AXD       0.072200
     45 H141         3.5680    -1.2330     9.6130 hn         1 AXD       0.389500
     46 H142         4.1940    -2.4250     8.7210 hn         1 AXD       0.389500
     47 H171         1.7940     0.4210     3.0670 h1         1 AXD       0.041700
     48 H172         0.3900     0.3520     4.1410 h1         1 AXD       0.041700
     49 H19          1.6410    -4.8800    -0.9570 ha         1 AXD       0.137000
     50 H21          3.4650    -4.3600    -4.8420 ha         1 AXD       0.134000
     51 H22          2.9960    -1.9280    -4.6370 h4         1 AXD      -0.014900
     52 H25         -0.9140     2.8110     7.0150 ha         1 AXD       0.254000
     53 H261        -2.0410    -0.3870     2.8270 hc         1 AXD       0.032700
     54 H262        -1.0570     1.0430     2.4700 hc         1 AXD       0.032700
     55 H263        -2.1070     0.3650     1.2280 hc         1 AXD       0.032700
     56 C24          1.0950     2.0110     6.2830 c1         1 AXD      -0.163100
     57 C25          0.0300     2.4400     6.6660 c1         1 AXD      -0.224000
@<TRIPOS>BOND
     1     1     2 1   
     2     1    17 1   
     3     1    28 1   
     4     2     3 1   
     5     2     7 1   
     6     2    24 1   
     7     3     4 1   
     8     3    29 1   
     9     3    30 1   
    10     4     5 1   
    11     4    31 1   
    12     4    32 1   
    13     5     6 1   
    14     5    18 1   
    15     6     7 1   
    16     6    33 1   
    17     6    34 1   
    18     7    35 1   
    19     7    36 1   
    20     8     9 1   
    21     8    12 1   
    22     8    37 1   
    23     8    56 1   
    24     9    10 1   
    25     9    15 1   
    26    10    11 1   
    27    10    13 1   
    28    10    38 1   
    29    11    12 1   
    30    11    39 1   
    31    11    40 1   
    32    12    41 1   
    33    12    42 1   
    34    13    14 1   
    35    13    43 1   
    36    13    44 1   
    37    14    45 1   
    38    14    46 1   
    39    15    16 2   
    40    15    17 1   
    41    17    47 1   
    42    17    48 1   
    43    18    19 ar  
    44    18    23 ar  
    45    19    20 ar  
    46    19    49 1   
    47    20    21 ar  
    48    20    25 1   
    49    21    22 ar  
    50    21    50 1   
    51    22    23 ar  
    52    22    51 1   
    53    24    53 1   
    54    24    54 1   
    55    24    55 1   
    56    25    26 1   
    57    25    27 1   
    58    52    57 1   
    59    56    57 3   
@<TRIPOS>SUBSTRUCTURE
     1 AXD         1 TEMP              0 ****  ****    0 ROOT
