@<TRIPOS>MOLECULE
AXE
   48    51     1     0     0
SMALL
abcg2


@<TRIPOS>ATOM
      1 C4          -2.1990     0.7750     0.0220 ca         1 AXE      -0.152000
      2 C5          -4.2630    -1.0850    -0.2460 ca         1 AXE      -0.188000
      3 C10         -4.5210     0.2510    -0.4160 ca         1 AXE       0.156100
      4 C15          2.7660     0.2660     0.7140 ca         1 AXE      -0.085300
      5 C17         -2.8250     3.4750    -0.4000 c3         1 AXE       0.143900
      6 C20          2.6120     1.5230     1.2470 ca         1 AXE      -0.111000
      7 C21          4.8060     1.0540    -0.3970 ca         1 AXE      -0.039000
      8 C22          4.1600    -1.2730    -0.6910 ca         1 AXE      -0.101000
      9 C24          4.5900     2.3360     0.1580 ca         1 AXE      -0.090000
     10 C26          5.2570    -1.4800    -1.4820 ca         1 AXE      -0.104000
     11 C18         -6.8110    -0.1040    -0.8700 c3         1 AXE       0.142900
     12 O14         -5.7130     0.7760    -0.7080 os         1 AXE      -0.317100
     13 C9          -3.4630     1.2040    -0.2820 ca         1 AXE       0.107100
     14 O13         -3.8250     2.4800    -0.4790 os         1 AXE      -0.318100
     15 C1          -1.9270    -0.5990     0.2010 ca         1 AXE      -0.177000
     16 C2          -2.9610    -1.5360     0.0620 ca         1 AXE       0.069000
     17 N6          -2.7530    -2.8720     0.2160 nb         1 AXE      -0.217000
     18 C11         -1.5320    -3.2260     0.5020 ca         1 AXE       0.166900
     19 N8          -0.4650    -2.4390     0.6710 nb         1 AXE      -0.298000
     20 C3          -0.6360    -1.1340     0.5270 ca         1 AXE       0.408900
     21 N7           0.4240    -0.3310     0.6870 nu         1 AXE      -0.929100
     22 C12          1.7480    -0.7990     1.0710 c3         1 AXE       0.290800
     23 C16          1.8290    -1.1530     2.5550 c3         1 AXE      -0.105100
     24 C19          3.8900    -0.0020    -0.1220 ca         1 AXE      -0.016000
     25 C27          6.1540    -0.4290    -1.7560 ca         1 AXE      -0.104000
     26 C25          5.9290     0.8090    -1.2230 ca         1 AXE      -0.100000
     27 C23          3.5150     2.5650     0.9670 ca         1 AXE      -0.112000
     28 H1          -1.4070     1.5030     0.1220 ha         1 AXE       0.111000
     29 H2          -5.0400    -1.8310    -0.3450 ha         1 AXE       0.141000
     30 H3          -2.3780     3.5230     0.5970 h1         1 AXE       0.040700
     31 H4          -2.0340     3.3140    -1.1390 h1         1 AXE       0.040700
     32 H5          -3.3140     4.4230    -0.6090 h1         1 AXE       0.040700
     33 H6           1.7830     1.7320     1.9160 ha         1 AXE       0.110000
     34 H7           3.4990    -2.1070    -0.5030 ha         1 AXE       0.120000
     35 H8           5.2940     3.1290    -0.0620 ha         1 AXE       0.115000
     36 H9           5.4380    -2.4620    -1.9000 ha         1 AXE       0.116000
     37 H10         -6.6390    -0.8180    -1.6790 h1         1 AXE       0.045033
     38 H11         -7.0240    -0.6560     0.0490 h1         1 AXE       0.045033
     39 H12         -7.6680     0.5150    -1.1180 h1         1 AXE       0.045033
     40 H13         -1.3470    -4.2890     0.6240 h5         1 AXE       0.040100
     41 H14          0.2990     0.6610     0.5760 hn         1 AXE       0.495000
     42 H15          1.9330    -1.7090     0.5040 h1         1 AXE       0.083700
     43 H16          1.6130    -0.2870     3.1810 hc         1 AXE       0.047033
     44 H17          1.1190    -1.9430     2.7990 hc         1 AXE       0.047033
     45 H18          2.8300    -1.5080     2.8000 hc         1 AXE       0.047033
     46 H19          7.0170    -0.6050    -2.3850 ha         1 AXE       0.115000
     47 H20          6.6120     1.6250    -1.4260 ha         1 AXE       0.114000
     48 H21          3.3520     3.5420     1.4020 ha         1 AXE       0.115000
@<TRIPOS>BOND
     1     1    13 ar  
     2     1    15 ar  
     3     1    28 1   
     4     2     3 ar  
     5     2    16 ar  
     6     2    29 1   
     7     3    12 1   
     8     3    13 ar  
     9     4     6 ar  
    10     4    22 1   
    11     4    24 ar  
    12     5    14 1   
    13     5    30 1   
    14     5    31 1   
    15     5    32 1   
    16     6    27 ar  
    17     6    33 1   
    18     7     9 ar  
    19     7    24 ar  
    20     7    26 ar  
    21     8    10 ar  
    22     8    24 ar  
    23     8    34 1   
    24     9    27 ar  
    25     9    35 1   
    26    10    25 ar  
    27    10    36 1   
    28    11    12 1   
    29    11    37 1   
    30    11    38 1   
    31    11    39 1   
    32    13    14 1   
    33    15    16 ar  
    34    15    20 ar  
    35    16    17 ar  
    36    17    18 ar  
    37    18    19 ar  
    38    18    40 1   
    39    19    20 ar  
    40    20    21 1   
    41    21    22 1   
    42    21    41 1   
    43    22    23 1   
    44    22    42 1   
    45    23    43 1   
    46    23    44 1   
    47    23    45 1   
    48    25    26 ar  
    49    25    46 1   
    50    26    47 1   
    51    27    48 1   
@<TRIPOS>SUBSTRUCTURE
     1 AXE         1 TEMP              0 ****  ****    0 ROOT
