@<TRIPOS>MOLECULE
AXE
   48    51     1     0     0
SMALL
No Charge or Current Charge


@<TRIPOS>ATOM
      1 C4          -1.9140     0.6230    -0.0090 ca         1 AXE      -0.152000
      2 C5          -3.9570    -1.2540    -0.4740 ca         1 AXE      -0.188000
      3 C10         -4.1620     0.1010    -0.8140 ca         1 AXE       0.156100
      4 C15          2.9240     0.2780     1.2630 ca         1 AXE      -0.085300
      5 C17         -2.3820     3.4030    -0.7290 c3         1 AXE       0.143900
      6 C20          3.3530     1.3460     2.0900 ca         1 AXE      -0.111000
      7 C21          4.4720     1.0910    -0.4710 ca         1 AXE      -0.039000
      8 C22          3.0880    -0.8540    -0.9480 ca         1 AXE      -0.101000
      9 C24          4.8870     2.1290     0.3790 ca         1 AXE      -0.090000
     10 C26          3.6630    -0.9480    -2.2270 ca         1 AXE      -0.104000
     11 C18         -6.4510    -0.3440    -1.6510 c3         1 AXE       0.142900
     12 O14         -5.3500     0.5410    -1.3760 os         1 AXE      -0.317100
     13 C9          -3.1360     1.0450    -0.5810 ca         1 AXE       0.107100
     14 O13         -3.3640     2.3690    -0.9250 os         1 AXE      -0.318100
     15 C1          -1.7160    -0.7370     0.3300 ca         1 AXE      -0.177000
     16 C2          -2.7450    -1.6800     0.0950 ca         1 AXE       0.069000
     17 N6          -2.5710    -2.9800     0.4110 nb         1 AXE      -0.217000
     18 C11         -1.3890    -3.3330     0.9520 ca         1 AXE       0.166900
     19 N8          -0.3510    -2.5180     1.2120 nb         1 AXE      -0.298000
     20 C3          -0.5130    -1.2200     0.9050 ca         1 AXE       0.408900
     21 N7           0.5690    -0.3800     1.1680 nu         1 AXE      -0.929100
     22 C12          1.8650    -0.7250     1.7670 c3         1 AXE       0.290800
     23 C16          1.7110    -0.8150     3.3020 c3         1 AXE      -0.105100
     24 C19          3.4870     0.1630    -0.0440 ca         1 AXE      -0.016000
     25 C27          4.6420    -0.0300    -2.6300 ca         1 AXE      -0.104000
     26 C25          5.0440     0.9890    -1.7540 ca         1 AXE      -0.100000
     27 C23          4.3240     2.2580     1.6540 ca         1 AXE      -0.112000
     28 H1          -1.1250     1.3440     0.1740 ha         1 AXE       0.111000
     29 H2          -4.7320    -1.9950    -0.6440 ha         1 AXE       0.141000
     30 H3          -2.1230     3.4990     0.3330 h1         1 AXE       0.040700
     31 H4          -1.4690     3.1860    -1.2980 h1         1 AXE       0.040700
     32 H5          -2.7750     4.3680    -1.0710 h1         1 AXE       0.040700
     33 H6           2.9390     1.4870     3.0840 ha         1 AXE       0.110000
     34 H7           2.3240    -1.5800    -0.6860 ha         1 AXE       0.120000
     35 H8           5.6410     2.8410     0.0510 ha         1 AXE       0.115000
     36 H9           3.3450    -1.7350    -2.9080 ha         1 AXE       0.116000
     37 H10         -6.1550    -1.1280    -2.3590 h1         1 AXE       0.045033
     38 H11         -6.8110    -0.8170    -0.7290 h1         1 AXE       0.045033
     39 H12         -7.2850     0.2150    -2.0930 h1         1 AXE       0.045033
     40 H13         -1.2600    -4.3850     1.2010 h5         1 AXE       0.040100
     41 H14          0.4570     0.5830     0.8660 hn         1 AXE       0.495000
     42 H15          2.1840    -1.7240     1.4360 h1         1 AXE       0.083700
     43 H16          1.2720     0.1000     3.7170 hc         1 AXE       0.047033
     44 H17          1.0560    -1.6500     3.5730 hc         1 AXE       0.047033
     45 H18          2.6850    -0.9860     3.7760 hc         1 AXE       0.047033
     46 H19          5.0860    -0.1050    -3.6200 ha         1 AXE       0.115000
     47 H20          5.8010     1.7010    -2.0750 ha         1 AXE       0.114000
     48 H21          4.6420     3.0680     2.3070 ha         1 AXE       0.115000
@<TRIPOS>BOND
     1     1    13 ar  
     2     1    15 ar  
     3     1    28 1   
     4     2     3 ar  
     5     2    16 ar  
     6     2    29 1   
     7     3    12 1   
     8     3    13 ar  
     9     4     6 ar  
    10     4    22 1   
    11     4    24 ar  
    12     5    14 1   
    13     5    30 1   
    14     5    31 1   
    15     5    32 1   
    16     6    27 ar  
    17     6    33 1   
    18     7     9 ar  
    19     7    24 ar  
    20     7    26 ar  
    21     8    10 ar  
    22     8    24 ar  
    23     8    34 1   
    24     9    27 ar  
    25     9    35 1   
    26    10    25 ar  
    27    10    36 1   
    28    11    12 1   
    29    11    37 1   
    30    11    38 1   
    31    11    39 1   
    32    13    14 1   
    33    15    16 ar  
    34    15    20 ar  
    35    16    17 ar  
    36    17    18 ar  
    37    18    19 ar  
    38    18    40 1   
    39    19    20 ar  
    40    20    21 1   
    41    21    22 1   
    42    21    41 1   
    43    22    23 1   
    44    22    42 1   
    45    23    43 1   
    46    23    44 1   
    47    23    45 1   
    48    25    26 ar  
    49    25    46 1   
    50    26    47 1   
    51    27    48 1   
@<TRIPOS>SUBSTRUCTURE
     1 AXE         1 TEMP              0 ****  ****    0 ROOT
