@<TRIPOS>MOLECULE
AXF
   76    77     1     0     0
SMALL
bcc


@<TRIPOS>ATOM
      1 C2           4.2620     1.0330    -0.6540 c6         1 AXF       0.029400
      2 C4           4.5430    -0.4630    -0.8560 c6         1 AXF       0.113500
      3 S1           4.2230     1.4500     1.1230 ss         1 AXF      -0.251200
      4 N6           5.8330    -0.7930    -0.2860 n7         1 AXF      -0.777200
      5 C8           6.9090    -0.1290    -1.0090 c6         1 AXF       0.159800
      6 C11          6.7480     1.3800    -0.9260 c6         1 AXF      -0.077400
      7 C14          5.3600     1.8040    -1.3910 c6         1 AXF      -0.074400
      8 C17          3.4760    -1.3750    -0.2710 c          1 AXF       0.651100
      9 N18          2.6760    -1.9560    -1.1880 ns         1 AXF      -0.590900
     10 C20          1.7260    -2.9940    -0.8370 c3         1 AXF       0.039700
     11 C22          0.7250    -2.4930     0.2080 c          1 AXF       0.672100
     12 N23          0.1410    -1.3230    -0.1140 ns         1 AXF      -0.576900
     13 C25         -0.7940    -0.6140     0.7350 c3         1 AXF       0.097700
     14 C27         -0.4520     0.8700     0.7730 c3         1 AXF      -0.005300
     15 S30         -0.7260     1.7230    -0.8110 ss         1 AXF      -0.333200
     16 C31         -0.0310     3.3500    -0.3500 c3         1 AXF       0.048900
     17 C34          1.4540     3.3460    -0.2510 c2         1 AXF      -0.179200
     18 C36          2.1150     3.2220     0.8990 c2         1 AXF      -0.151200
     19 C38          3.5980     3.1640     1.0180 c3         1 AXF       0.023900
     20 C41         -2.2540    -0.8740     0.3180 c3         1 AXF       0.128100
     21 O43         -2.4200    -0.7020    -1.0720 oh         1 AXF      -0.590800
     22 C45         -2.7630    -2.2340     0.7880 c3         1 AXF      -0.104400
     23 C48         -4.2060    -2.5460     0.3700 c3         1 AXF      -0.134700
     24 C50         -4.6340    -3.9140     0.8920 c3         1 AXF      -0.080100
     25 C54         -5.1430    -1.4640     0.8790 c          1 AXF       0.668100
     26 O55         -5.4740    -1.4030     2.0570 o          1 AXF      -0.613100
     27 N56         -5.5580    -0.5900    -0.0520 ns         1 AXF      -0.569900
     28 C58         -6.3960     0.5620     0.2000 c3         1 AXF       0.098000
     29 C61         -7.5300     0.6630    -0.8100 c3         1 AXF      -0.095400
     30 C64         -8.3770     1.9130    -0.6060 c3         1 AXF      -0.073400
     31 C67         -9.5030     2.0240    -1.6230 c3         1 AXF      -0.089100
     32 O71          0.4370    -3.1450     1.1960 o          1 AXF      -0.579100
     33 C72          2.3860    -4.3030    -0.4330 c3         1 AXF      -0.099100
     34 O76          3.3560    -1.5770     0.9250 o          1 AXF      -0.531100
     35 H2           3.2810     1.2680    -1.0780 h1         1 AXF       0.069700
     36 H4           4.5400    -0.6010    -1.9520 h1         1 AXF       0.017700
     37 HN6          5.9800    -1.7940    -0.3220 hn         1 AXF       0.364800
     38 H81          6.9330    -0.4270    -2.0700 h1         1 AXF       0.032200
     39 H82          7.8600    -0.4350    -0.5700 h1         1 AXF       0.032200
     40 H111         7.5110     1.8630    -1.5400 hc         1 AXF       0.058700
     41 H112         6.9060     1.7090     0.1030 hc         1 AXF       0.058700
     42 H141         5.2480     1.6020    -2.4620 hc         1 AXF       0.041700
     43 H142         5.2310     2.8820    -1.2740 hc         1 AXF       0.041700
     44 H18          2.8900    -1.8350    -2.1640 hn         1 AXF       0.313500
     45 H20          1.1460    -3.1720    -1.7470 h1         1 AXF       0.055700
     46 H23          0.4940    -0.8270    -0.9200 hn         1 AXF       0.324500
     47 H25         -0.6600    -0.9780     1.7570 h1         1 AXF       0.092700
     48 H271        -1.0630     1.3500     1.5400 h1         1 AXF       0.075700
     49 H272         0.5970     0.9890     1.0540 h1         1 AXF       0.075700
     50 H311        -0.3710     4.0330    -1.1300 h1         1 AXF       0.074200
     51 H312        -0.4960     3.6650     0.5860 h1         1 AXF       0.074200
     52 H34          2.0050     3.4250    -1.1840 ha         1 AXF       0.124000
     53 H36          1.5530     3.1350     1.8250 ha         1 AXF       0.129000
     54 H381         4.0880     3.6780     0.1910 h1         1 AXF       0.073200
     55 H382         3.9320     3.6470     1.9370 h1         1 AXF       0.073200
     56 H41         -2.8570    -0.0900     0.7870 h1         1 AXF       0.085700
     57 H43         -1.9400    -1.4090    -1.5190 ho         1 AXF       0.399000
     58 H451        -2.6820    -2.2800     1.8780 hc         1 AXF       0.065700
     59 H452        -2.1250    -3.0310     0.3970 hc         1 AXF       0.065700
     60 H48         -4.2490    -2.5760    -0.7210 hc         1 AXF       0.050700
     61 H501        -4.5990    -3.9540     1.9810 hc         1 AXF       0.043033
     62 H502        -5.6480    -4.1610     0.5760 hc         1 AXF       0.043033
     63 H503        -3.9690    -4.6870     0.5060 hc         1 AXF       0.043033
     64 H56         -5.1670    -0.6720    -0.9770 hn         1 AXF       0.317500
     65 H581        -5.7900     1.4740     0.1680 h1         1 AXF       0.053700
     66 H582        -6.7950     0.4810     1.2100 h1         1 AXF       0.053700
     67 H611        -8.1590    -0.2290    -0.7380 hc         1 AXF       0.042700
     68 H612        -7.1150     0.6700    -1.8240 hc         1 AXF       0.042700
     69 H641        -7.7380     2.7990    -0.6670 hc         1 AXF       0.039700
     70 H642        -8.7940     1.9090     0.4060 hc         1 AXF       0.039700
     71 H671       -10.1780     1.1690    -1.5580 hc         1 AXF       0.032367
     72 H672       -10.0960     2.9260    -1.4690 hc         1 AXF       0.032367
     73 H673        -9.1110     2.0570    -2.6420 hc         1 AXF       0.032367
     74 H721         2.9460    -4.2130     0.4960 hc         1 AXF       0.053367
     75 H722         1.6390    -5.0850    -0.3070 hc         1 AXF       0.053367
     76 H723         3.0700    -4.6210    -1.2200 hc         1 AXF       0.053367
@<TRIPOS>BOND
     1     1     2 1   
     2     1     3 1   
     3     1     7 1   
     4     1    35 1   
     5     2     4 1   
     6     2     8 1   
     7     2    36 1   
     8     3    19 1   
     9     4     5 1   
    10     4    37 1   
    11     5     6 1   
    12     5    38 1   
    13     5    39 1   
    14     6     7 1   
    15     6    40 1   
    16     6    41 1   
    17     7    42 1   
    18     7    43 1   
    19     8     9 1   
    20     8    34 2   
    21     9    10 1   
    22     9    44 1   
    23    10    11 1   
    24    10    33 1   
    25    10    45 1   
    26    11    12 1   
    27    11    32 2   
    28    12    13 1   
    29    12    46 1   
    30    13    14 1   
    31    13    20 1   
    32    13    47 1   
    33    14    15 1   
    34    14    48 1   
    35    14    49 1   
    36    15    16 1   
    37    16    17 1   
    38    16    50 1   
    39    16    51 1   
    40    17    18 2   
    41    17    52 1   
    42    18    19 1   
    43    18    53 1   
    44    19    54 1   
    45    19    55 1   
    46    20    21 1   
    47    20    22 1   
    48    20    56 1   
    49    21    57 1   
    50    22    23 1   
    51    22    58 1   
    52    22    59 1   
    53    23    24 1   
    54    23    25 1   
    55    23    60 1   
    56    24    61 1   
    57    24    62 1   
    58    24    63 1   
    59    25    26 2   
    60    25    27 1   
    61    27    28 1   
    62    27    64 1   
    63    28    29 1   
    64    28    65 1   
    65    28    66 1   
    66    29    30 1   
    67    29    67 1   
    68    29    68 1   
    69    30    31 1   
    70    30    69 1   
    71    30    70 1   
    72    31    71 1   
    73    31    72 1   
    74    31    73 1   
    75    33    74 1   
    76    33    75 1   
    77    33    76 1   
@<TRIPOS>SUBSTRUCTURE
     1 AXF         1 TEMP              0 ****  ****    0 ROOT
