@<TRIPOS>MOLECULE
AXF
   76    77     1     0     0
SMALL
No Charge or Current Charge


@<TRIPOS>ATOM
      1 C2           4.4740     0.9220    -1.0560 c6         1 AXF       0.077300
      2 C4           4.7340    -0.4620    -1.7500 c6         1 AXF       0.113500
      3 S1           4.7940     0.9340     0.7830 ss         1 AXF      -0.347000
      4 N6           6.2040    -0.7990    -1.7650 n7         1 AXF      -0.832400
      5 C8           7.0220     0.2320    -2.4470 c6         1 AXF       0.159800
      6 C11          6.8080     1.6340    -1.8240 c6         1 AXF      -0.077400
      7 C14          5.3040     2.0100    -1.7900 c6         1 AXF      -0.074400
      8 C17          3.8330    -1.6520    -1.2470 c          1 AXF       0.584100
      9 N18          3.0170    -1.4220    -0.1570 ns         1 AXF      -0.523900
     10 C20          2.0170    -2.3610     0.3880 c3         1 AXF       0.039700
     11 C22          1.0420    -1.5750     1.3070 c          1 AXF       0.605100
     12 N23         -0.2770    -1.6090     0.9140 ns         1 AXF      -0.509900
     13 C25         -1.3450    -0.7490     1.4530 c3         1 AXF       0.097700
     14 C27         -0.9810     0.7600     1.3320 c3         1 AXF       0.042600
     15 S30         -0.3890     1.2190    -0.3730 ss         1 AXF      -0.429000
     16 C31          0.2250     2.9360    -0.0610 c3         1 AXF       0.096800
     17 C34          1.7340     2.9360     0.1020 c2         1 AXF      -0.229200
     18 C36          2.4310     2.3490     1.0910 c2         1 AXF      -0.201200
     19 C38          3.9260     2.4830     1.3030 c3         1 AXF       0.071800
     20 C41         -2.7160    -1.0760     0.7840 c3         1 AXF       0.151300
     21 O43         -2.5950    -0.9690    -0.6430 oh         1 AXF      -0.653000
     22 C45         -3.2390    -2.4940     1.1420 c3         1 AXF      -0.104400
     23 C48         -4.6260    -2.8510     0.5320 c3         1 AXF      -0.134700
     24 C50         -5.0930    -4.2670     0.9470 c3         1 AXF      -0.080100
     25 C54         -5.6940    -1.7920     0.8770 c          1 AXF       0.601100
     26 O55         -6.0540    -1.5610     2.0240 o          1 AXF      -0.613100
     27 N56         -6.2110    -1.1110    -0.2000 ns         1 AXF      -0.502900
     28 C58         -7.2100    -0.0470    -0.1090 c3         1 AXF       0.098000
     29 C61         -7.2440     0.8060    -1.3910 c3         1 AXF      -0.095400
     30 C64         -8.2840     1.9450    -1.3270 c3         1 AXF      -0.073400
     31 C67         -8.3220     2.8010    -2.6080 c3         1 AXF      -0.089100
     32 O71          1.4130    -0.9640     2.3010 o          1 AXF      -0.579100
     33 C72          2.6810    -3.5370     1.1400 c3         1 AXF      -0.099100
     34 O76          3.8440    -2.7380    -1.8140 o          1 AXF      -0.531100
     35 H2           3.4100     1.1620    -1.1890 h1         1 AXF       0.069700
     36 H4           4.4270    -0.3390    -2.7990 h1         1 AXF       0.017700
     37 HN6          6.3330    -1.6970    -2.2490 hn         1 AXF       0.420000
     38 H81          6.7490     0.2630    -3.5120 h1         1 AXF       0.032200
     39 H82          8.0850    -0.0420    -2.3850 h1         1 AXF       0.032200
     40 H111         7.3680     2.3830    -2.4000 hc         1 AXF       0.058700
     41 H112         7.2230     1.6510    -0.8080 hc         1 AXF       0.058700
     42 H141         4.9330     2.1170    -2.8190 hc         1 AXF       0.041700
     43 H142         5.1700     2.9910    -1.3170 hc         1 AXF       0.041700
     44 H18          3.1230    -0.5200     0.2980 hn         1 AXF       0.313500
     45 H20          1.4370    -2.7670    -0.4510 h1         1 AXF       0.055700
     46 H23         -0.4870    -2.1420     0.0780 hn         1 AXF       0.324500
     47 H25         -1.4450    -0.9700     2.5260 h1         1 AXF       0.092700
     48 H271        -1.8510     1.3760     1.5930 h1         1 AXF       0.075700
     49 H272        -0.1910     0.9970     2.0540 h1         1 AXF       0.075700
     50 H311        -0.0540     3.5670    -0.9150 h1         1 AXF       0.074200
     51 H312        -0.2590     3.3470     0.8350 h1         1 AXF       0.074200
     52 H34          2.2510     3.5340    -0.6500 ha         1 AXF       0.174000
     53 H36          1.9260     1.7710     1.8650 ha         1 AXF       0.179000
     54 H381         4.3230     3.3390     0.7430 h1         1 AXF       0.073200
     55 H382         4.1320     2.6570     2.3670 h1         1 AXF       0.073200
     56 H41         -3.4450    -0.3400     1.1550 h1         1 AXF       0.085700
     57 H43         -1.9480    -0.2440    -0.8080 ho         1 AXF       0.438000
     58 H451        -3.3020    -2.5760     2.2350 hc         1 AXF       0.065700
     59 H452        -2.5070    -3.2450     0.8180 hc         1 AXF       0.065700
     60 H48         -4.5100    -2.8670    -0.5590 hc         1 AXF       0.050700
     61 H501        -5.2200    -4.3350     2.0350 hc         1 AXF       0.043033
     62 H502        -6.0520    -4.5110     0.4740 hc         1 AXF       0.043033
     63 H503        -4.3610    -5.0230     0.6400 hc         1 AXF       0.043033
     64 H56         -5.8390    -1.3520    -1.1110 hn         1 AXF       0.317500
     65 H581        -6.9730     0.5960     0.7490 h1         1 AXF       0.053700
     66 H582        -8.1950    -0.5010     0.0620 h1         1 AXF       0.053700
     67 H611        -7.4700     0.1590    -2.2480 hc         1 AXF       0.042700
     68 H612        -6.2490     1.2350    -1.5630 hc         1 AXF       0.042700
     69 H641        -8.0610     2.5940    -0.4710 hc         1 AXF       0.039700
     70 H642        -9.2800     1.5190    -1.1540 hc         1 AXF       0.039700
     71 H671        -8.5780     2.1860    -3.4780 hc         1 AXF       0.032367
     72 H672        -9.0730     3.5950    -2.5150 hc         1 AXF       0.032367
     73 H673        -7.3470     3.2700    -2.7890 hc         1 AXF       0.032367
     74 H721         3.2960    -3.1700     1.9710 hc         1 AXF       0.053367
     75 H722         1.9170    -4.2090     1.5490 hc         1 AXF       0.053367
     76 H723         3.3220    -4.1210     0.4700 hc         1 AXF       0.053367
@<TRIPOS>BOND
     1     1     2 1   
     2     1     3 1   
     3     1     7 1   
     4     1    35 1   
     5     2     4 1   
     6     2     8 1   
     7     2    36 1   
     8     3    19 1   
     9     4     5 1   
    10     4    37 1   
    11     5     6 1   
    12     5    38 1   
    13     5    39 1   
    14     6     7 1   
    15     6    40 1   
    16     6    41 1   
    17     7    42 1   
    18     7    43 1   
    19     8     9 1   
    20     8    34 2   
    21     9    10 1   
    22     9    44 1   
    23    10    11 1   
    24    10    33 1   
    25    10    45 1   
    26    11    12 1   
    27    11    32 2   
    28    12    13 1   
    29    12    46 1   
    30    13    14 1   
    31    13    20 1   
    32    13    47 1   
    33    14    15 1   
    34    14    48 1   
    35    14    49 1   
    36    15    16 1   
    37    16    17 1   
    38    16    50 1   
    39    16    51 1   
    40    17    18 2   
    41    17    52 1   
    42    18    19 1   
    43    18    53 1   
    44    19    54 1   
    45    19    55 1   
    46    20    21 1   
    47    20    22 1   
    48    20    56 1   
    49    21    57 1   
    50    22    23 1   
    51    22    58 1   
    52    22    59 1   
    53    23    24 1   
    54    23    25 1   
    55    23    60 1   
    56    24    61 1   
    57    24    62 1   
    58    24    63 1   
    59    25    26 2   
    60    25    27 1   
    61    27    28 1   
    62    27    64 1   
    63    28    29 1   
    64    28    65 1   
    65    28    66 1   
    66    29    30 1   
    67    29    67 1   
    68    29    68 1   
    69    30    31 1   
    70    30    69 1   
    71    30    70 1   
    72    31    71 1   
    73    31    72 1   
    74    31    73 1   
    75    33    74 1   
    76    33    75 1   
    77    33    76 1   
@<TRIPOS>SUBSTRUCTURE
     1 AXF         1 TEMP              0 ****  ****    0 ROOT
