@<TRIPOS>MOLECULE
AXG
   38    40     1     0     0
SMALL
No Charge or Current Charge


@<TRIPOS>ATOM
      1 N1          -0.7060     0.9650    -0.0860 n3         1 AXG      -0.719600
      2 C4          -3.1650     0.4500     0.0810 ca         1 AXG      -0.090300
      3 C5          -3.4660    -0.1630    -1.1520 ca         1 AXG      -0.099000
      4 C6          -4.4780    -1.1350    -1.2340 ca         1 AXG      -0.113500
      5 C7          -2.0650     1.5050     0.1640 c3         1 AXG       0.214100
      6 C8           0.3130     2.0460    -0.1910 c6         1 AXG       0.165800
      7 C10          2.1490     0.3980     0.4250 c6         1 AXG       0.082300
      8 C13          4.6110    -0.0990     0.8470 cc         1 AXG      -0.201500
      9 C15          5.0600    -1.2170    -1.0630 cd         1 AXG      -0.181500
     10 C1          -5.1960    -1.5010    -0.0840 ca         1 AXG      -0.108000
     11 C2          -4.9020    -0.8940     1.1490 ca         1 AXG      -0.113500
     12 C3          -3.8890     0.0780     1.2310 ca         1 AXG      -0.099000
     13 C9           1.6970     1.4820    -0.5830 c6         1 AXG      -0.089400
     14 C11          1.0640    -0.6980     0.5450 c6         1 AXG      -0.089400
     15 C12         -0.3040    -0.0750     0.9040 c6         1 AXG       0.165800
     16 N2           3.4630    -0.1760     0.0540 na         1 AXG       0.026000
     17 C14          5.5940    -0.7450     0.1500 cd         1 AXG      -0.181500
     18 C16          3.7390    -0.8680    -1.1300 cc         1 AXG      -0.201500
     19 H2          -2.9090     0.1150    -2.0450 ha         1 AXG       0.117000
     20 H3          -4.7040    -1.6050    -2.1890 ha         1 AXG       0.112000
     21 H4          -2.1000     1.9880     1.1510 h1         1 AXG       0.038700
     22 H5          -2.2940     2.2840    -0.5760 h1         1 AXG       0.038700
     23 H6           0.0080     2.7840    -0.9470 h1         1 AXG       0.036700
     24 H7           0.4000     2.5810     0.7670 h1         1 AXG       0.036700
     25 H8           2.2590     0.8750     1.4090 h1         1 AXG       0.059700
     26 H9           4.6280     0.3950     1.8110 h4         1 AXG       0.140500
     27 H10          5.6050    -1.7690    -1.8240 ha         1 AXG       0.129000
     28 H11         -5.9790    -2.2540    -0.1470 ha         1 AXG       0.112000
     29 H12         -5.4570    -1.1780     2.0410 ha         1 AXG       0.112000
     30 H13         -3.6670     0.5410     2.1910 ha         1 AXG       0.117000
     31 H14          1.6430     1.0630    -1.5960 hc         1 AXG       0.060450
     32 H15          2.4330     2.2970    -0.6150 hc         1 AXG       0.060450
     33 H16          0.9720    -1.2500    -0.4000 hc         1 AXG       0.060450
     34 H17          1.3500    -1.4300     1.3130 hc         1 AXG       0.060450
     35 H18         -0.2480     0.3610     1.9130 h1         1 AXG       0.036700
     36 H19         -1.0500    -0.8830     0.9430 h1         1 AXG       0.036700
     37 H20          6.6220    -0.8720     0.4820 ha         1 AXG       0.129000
     38 H21          2.9940    -1.0480    -1.8960 h4         1 AXG       0.140500
@<TRIPOS>BOND
     1     1     5 1   
     2     1     6 1   
     3     1    15 1   
     4     2     3 ar  
     5     2     5 1   
     6     2    12 ar  
     7     3     4 ar  
     8     3    19 1   
     9     4    10 ar  
    10     4    20 1   
    11     5    21 1   
    12     5    22 1   
    13     6    13 1   
    14     6    23 1   
    15     6    24 1   
    16     7    13 1   
    17     7    14 1   
    18     7    16 1   
    19     7    25 1   
    20     8    16 1   
    21     8    17 2   
    22     8    26 1   
    23     9    17 1   
    24     9    18 2   
    25     9    27 1   
    26    10    11 ar  
    27    10    28 1   
    28    11    12 ar  
    29    11    29 1   
    30    12    30 1   
    31    13    31 1   
    32    13    32 1   
    33    14    15 1   
    34    14    33 1   
    35    14    34 1   
    36    15    35 1   
    37    15    36 1   
    38    16    18 1   
    39    17    37 1   
    40    18    38 1   
@<TRIPOS>SUBSTRUCTURE
     1 AXG         1 TEMP              0 ****  ****    0 ROOT
