@<TRIPOS>MOLECULE
AXG
   38    40     1     0     0
SMALL
bcc


@<TRIPOS>ATOM
      1 N1          -0.6900     0.9210     0.0050 n3         1 AXG      -0.719600
      2 C4          -3.0970     0.4150     0.1700 ca         1 AXG      -0.090300
      3 C5          -3.1360    -0.4130    -0.9510 ca         1 AXG      -0.117000
      4 C6          -4.1670    -1.3270    -1.1190 ca         1 AXG      -0.131500
      5 C7          -2.0020     1.4370     0.3350 c3         1 AXG       0.214100
      6 C8           0.2900     1.9890    -0.0720 c6         1 AXG       0.165800
      7 C10          2.1280     0.3680     0.3920 c6         1 AXG       0.053000
      8 C13          4.5630    -0.0840     0.7110 cc         1 AXG      -0.168800
      9 C15          5.0040    -1.1620    -1.2050 cd         1 AXG      -0.199500
     10 C1          -5.1770    -1.4260    -0.1690 ca         1 AXG      -0.126000
     11 C2          -5.1440    -0.6080     0.9510 ca         1 AXG      -0.131500
     12 C3          -4.1070     0.3020     1.1190 ca         1 AXG      -0.117000
     13 C9           1.6370     1.4660    -0.5430 c6         1 AXG      -0.089400
     14 C11          1.0640    -0.7170     0.5120 c6         1 AXG      -0.089400
     15 C12         -0.2630    -0.1080     0.9360 c6         1 AXG       0.165800
     16 N2           3.4150    -0.1670    -0.0180 na         1 AXG      -0.046100
     17 C14          5.5720    -0.6920     0.0050 cd         1 AXG      -0.199500
     18 C16          3.6740    -0.8210    -1.1850 cc         1 AXG      -0.168800
     19 H2          -2.3450    -0.3460    -1.6880 ha         1 AXG       0.135000
     20 H3          -4.1820    -1.9640    -1.9940 ha         1 AXG       0.130000
     21 H4          -2.0390     1.8480     1.3590 h1         1 AXG       0.038700
     22 H5          -2.2080     2.2790    -0.3350 h1         1 AXG       0.038700
     23 H6          -0.0720     2.7500    -0.7680 h1         1 AXG       0.036700
     24 H7           0.4160     2.4900     0.9050 h1         1 AXG       0.036700
     25 H8           2.2880     0.8050     1.3820 h1         1 AXG       0.059700
     26 H9           4.5720     0.4040     1.6730 h4         1 AXG       0.158500
     27 H10          5.5080    -1.6900    -1.9990 ha         1 AXG       0.147000
     28 H11         -5.9810    -2.1390    -0.3010 ha         1 AXG       0.130000
     29 H12         -5.9210    -0.6820     1.7020 ha         1 AXG       0.130000
     30 H13         -4.0850     0.9320     2.0010 ha         1 AXG       0.135000
     31 H14          1.5380     1.0740    -1.5600 hc         1 AXG       0.060450
     32 H15          2.3600     2.2850    -0.5770 hc         1 AXG       0.060450
     33 H16          0.9360    -1.2220    -0.4490 hc         1 AXG       0.060450
     34 H17          1.3710    -1.4700     1.2410 hc         1 AXG       0.060450
     35 H18         -0.1730     0.2950     1.9620 h1         1 AXG       0.036700
     36 H19         -1.0200    -0.8930     0.9760 h1         1 AXG       0.036700
     37 H20          6.5990    -0.7870     0.3240 ha         1 AXG       0.147000
     38 H21          2.9010    -0.9930    -1.9170 h4         1 AXG       0.158500
@<TRIPOS>BOND
     1     1     5 1   
     2     1     6 1   
     3     1    15 1   
     4     2     3 ar  
     5     2     5 1   
     6     2    12 ar  
     7     3     4 ar  
     8     3    19 1   
     9     4    10 ar  
    10     4    20 1   
    11     5    21 1   
    12     5    22 1   
    13     6    13 1   
    14     6    23 1   
    15     6    24 1   
    16     7    13 1   
    17     7    14 1   
    18     7    16 1   
    19     7    25 1   
    20     8    16 1   
    21     8    17 2   
    22     8    26 1   
    23     9    17 1   
    24     9    18 2   
    25     9    27 1   
    26    10    11 ar  
    27    10    28 1   
    28    11    12 ar  
    29    11    29 1   
    30    12    30 1   
    31    13    31 1   
    32    13    32 1   
    33    14    15 1   
    34    14    33 1   
    35    14    34 1   
    36    15    35 1   
    37    15    36 1   
    38    16    18 1   
    39    17    37 1   
    40    18    38 1   
@<TRIPOS>SUBSTRUCTURE
     1 AXG         1 TEMP              0 ****  ****    0 ROOT
