@<TRIPOS>MOLECULE
AXH
   60    63     1     0     0
SMALL
bcc


@<TRIPOS>ATOM
      1 N3          -0.4260    -1.1520     1.1140 nu         1 AXH      -0.865900
      2 C4          -1.5660    -1.4440     0.4610 ca         1 AXH       0.740200
      3 C5          -2.4580    -0.4060     0.0330 ca         1 AXH      -0.309600
      4 C6          -2.2660     0.9730     0.2720 ca         1 AXH      -0.169000
      5 C7          -3.1640     1.8950    -0.1950 ca         1 AXH       0.104100
      6 C10         -4.3130     1.4570    -0.9230 ca         1 AXH       0.155100
      7 C13         -4.5090     0.1190    -1.1510 ca         1 AXH      -0.271300
      8 C21          4.2170    -1.0650     2.1300 cc         1 AXH      -0.114100
      9 C22          3.8550    -0.6980     0.8630 cd         1 AXH      -0.063000
     10 C24          4.7970    -0.0730    -0.0860 ca         1 AXH       0.010000
     11 C26          7.0320    -0.0490    -1.0340 ca         1 AXH      -0.125000
     12 C28          5.4280     1.5990    -1.7000 ca         1 AXH      -0.129000
     13 C12         -6.2690     2.0880    -2.0880 c3         1 AXH       0.119700
     14 O11         -5.1230     2.4370    -1.3330 os         1 AXH      -0.294900
     15 O8          -3.0720     3.2240    -0.0340 os         1 AXH      -0.294900
     16 C9          -1.9440     3.7360     0.6450 c3         1 AXH       0.120700
     17 C14         -3.5860    -0.8380    -0.6780 ca         1 AXH       0.468600
     18 N15         -3.8270    -2.1510    -0.9340 nb         1 AXH      -0.746000
     19 C16         -2.9480    -3.0060    -0.4830 ca         1 AXH       0.713300
     20 C18         -3.1800    -4.4640    -0.7330 c3         1 AXH      -0.133400
     21 N17         -1.8320    -2.7090     0.2050 nb         1 AXH      -0.824000
     22 C2           0.4530    -2.1600     1.6770 c3         1 AXH       0.312800
     23 C1          -0.0040    -2.5880     3.0680 c3         1 AXH      -0.119100
     24 C19          1.8650    -1.6390     1.6350 cc         1 AXH      -0.103400
     25 C23          2.4940    -1.0350     0.5900 cd         1 AXH      -0.113000
     26 S20          2.9310    -1.8000     2.9790 ss         1 AXH      -0.081800
     27 C25          6.0850    -0.6050    -0.1890 ca         1 AXH      -0.121000
     28 C27          6.7030     1.0610    -1.7980 ca         1 AXH      -0.127000
     29 C29          4.4640     1.0510    -0.8590 ca         1 AXH      -0.068300
     30 C30          3.1000     1.6870    -0.8290 c3         1 AXH       0.201100
     31 N31          2.2200     1.0650    -1.8040 n7         1 AXH      -0.806200
     32 C32          0.8690     1.5810    -1.7420 c3         1 AXH       0.143100
     33 H1          -0.2770    -0.2090     1.4340 hn         1 AXH       0.434800
     34 H2          -1.4010     1.3120     0.8260 ha         1 AXH       0.130000
     35 H3          -5.3720    -0.2440    -1.6940 ha         1 AXH       0.159000
     36 H4           5.1730    -0.9210     2.6100 h4         1 AXH       0.169000
     37 H5           8.0210    -0.4840    -1.0950 ha         1 AXH       0.132000
     38 H6           5.1750     2.4780    -2.2820 ha         1 AXH       0.125000
     39 H7          -5.9990     1.5860    -3.0210 h1         1 AXH       0.045033
     40 H8          -6.9460     1.4430    -1.5230 h1         1 AXH       0.045033
     41 H9          -6.7780     3.0190    -2.3220 h1         1 AXH       0.045033
     42 H10         -1.8920     3.3790     1.6770 h1         1 AXH       0.040033
     43 H11         -1.0110     3.4780     0.1360 h1         1 AXH       0.040033
     44 H12         -2.0510     4.8180     0.6520 h1         1 AXH       0.040033
     45 H13         -2.3400    -4.8990    -1.2760 hc         1 AXH       0.056033
     46 H14         -3.2620    -5.0040     0.2110 hc         1 AXH       0.056033
     47 H15         -4.0900    -4.6240    -1.3070 hc         1 AXH       0.056033
     48 H16          0.3960    -3.0300     1.0200 h1         1 AXH       0.101700
     49 H17         -1.0280    -2.9550     3.0190 hc         1 AXH       0.048367
     50 H18          0.6150    -3.3990     3.4550 hc         1 AXH       0.048367
     51 H19          0.0300    -1.7560     3.7720 hc         1 AXH       0.048367
     52 H20          2.0220    -0.8360    -0.3640 ha         1 AXH       0.189000
     53 H21          6.3410    -1.4820     0.3930 ha         1 AXH       0.133000
     54 H22          7.4310     1.5080    -2.4620 ha         1 AXH       0.131000
     55 H23          2.6500     1.5750     0.1610 h1         1 AXH       0.036200
     56 H24          3.2070     2.7700    -0.9960 h1         1 AXH       0.036200
     57 H25          2.5980     1.2150    -2.7310 hn         1 AXH       0.357800
     58 H27          0.7960     2.6760    -1.8010 h1         1 AXH       0.030033
     59 H28          0.2770     1.1610    -2.5550 h1         1 AXH       0.030033
     60 H29          0.4040     1.2690    -0.8050 h1         1 AXH       0.030033
@<TRIPOS>BOND
     1     1     2 1   
     2     1    22 1   
     3     1    33 1   
     4     2     3 ar  
     5     2    21 ar  
     6     3     4 ar  
     7     3    17 ar  
     8     4     5 ar  
     9     4    34 1   
    10     5     6 ar  
    11     5    15 1   
    12     6     7 ar  
    13     6    14 1   
    14     7    17 ar  
    15     7    35 1   
    16     8     9 2   
    17     8    26 1   
    18     8    36 1   
    19     9    10 1   
    20     9    25 1   
    21    10    27 ar  
    22    10    29 ar  
    23    11    27 ar  
    24    11    28 ar  
    25    11    37 1   
    26    12    28 ar  
    27    12    29 ar  
    28    12    38 1   
    29    13    14 1   
    30    13    39 1   
    31    13    40 1   
    32    13    41 1   
    33    15    16 1   
    34    16    42 1   
    35    16    43 1   
    36    16    44 1   
    37    17    18 ar  
    38    18    19 ar  
    39    19    20 1   
    40    19    21 ar  
    41    20    45 1   
    42    20    46 1   
    43    20    47 1   
    44    22    23 1   
    45    22    24 1   
    46    22    48 1   
    47    23    49 1   
    48    23    50 1   
    49    23    51 1   
    50    24    25 2   
    51    24    26 1   
    52    25    52 1   
    53    27    53 1   
    54    28    54 1   
    55    29    30 1   
    56    30    31 1   
    57    30    55 1   
    58    30    56 1   
    59    31    32 1   
    60    31    57 1   
    61    32    58 1   
    62    32    59 1   
    63    32    60 1   
@<TRIPOS>SUBSTRUCTURE
     1 AXH         1 TEMP              0 ****  ****    0 ROOT
