@<TRIPOS>MOLECULE
AXH
   60    63     1     0     0
SMALL
No Charge or Current Charge


@<TRIPOS>ATOM
      1 N3          -0.8670    -2.0850     2.1970 nu         1 AXH      -0.921100
      2 C4          -1.6690    -1.8470     1.0910 ca         1 AXH       0.411900
      3 C5          -1.8730    -0.5490     0.5650 ca         1 AXH      -0.179000
      4 C6          -1.2400     0.6000     1.0950 ca         1 AXH      -0.151000
      5 C7          -1.4420     1.8630     0.4960 ca         1 AXH       0.104100
      6 C10         -2.3010     1.9770    -0.6210 ca         1 AXH       0.155100
      7 C13         -2.9360     0.8260    -1.1380 ca         1 AXH      -0.188000
      8 C21          3.0930     0.2530     2.2210 cc         1 AXH      -0.241000
      9 C22          2.7270     0.0890     0.9010 cd         1 AXH      -0.063000
     10 C24          3.3390     0.8730    -0.2090 ca         1 AXH       0.010000
     11 C26          5.2800     2.1670    -0.9930 ca         1 AXH      -0.107000
     12 C28          3.3710     1.8740    -2.4520 ca         1 AXH      -0.111000
     13 C12         -3.3160     3.4400    -2.3430 c3         1 AXH       0.142900
     14 O11         -2.4810     3.2280    -1.1910 os         1 AXH      -0.318100
     15 O8          -0.8020     3.0010     0.9620 os         1 AXH      -0.318100
     16 C9           0.2130     2.9540     1.9800 c3         1 AXH       0.143900
     17 C14         -2.7210    -0.4360    -0.5600 ca         1 AXH       0.075000
     18 N15         -3.3040    -1.5310    -1.0910 nb         1 AXH      -0.220000
     19 C16         -3.0330    -2.7220    -0.5190 ca         1 AXH       0.187300
     20 C18         -3.6780    -3.9450    -1.1470 c3         1 AXH      -0.133400
     21 N17         -2.2360    -2.9330     0.5450 nb         1 AXH      -0.298000
     22 C2           0.4410    -2.7200     2.0990 c3         1 AXH       0.312800
     23 C1           0.6800    -3.6190     3.3260 c3         1 AXH      -0.119100
     24 C19          1.4420    -1.6080     1.9340 cc         1 AXH      -0.248300
     25 C23          1.8390    -1.0230     0.7580 cd         1 AXH      -0.095000
     26 S20          2.2300    -0.8330     3.2990 ss         1 AXH       0.208000
     27 C25          4.6260     1.4240     0.0020 ca         1 AXH      -0.103000
     28 C27          4.6540     2.3880    -2.2240 ca         1 AXH      -0.109000
     29 C29          2.6990     1.1220    -1.4630 ca         1 AXH      -0.068300
     30 C30          1.2650     0.7040    -1.7890 c3         1 AXH       0.201100
     31 N31          1.2470    -0.4950    -2.6510 n7         1 AXH      -0.861400
     32 C32         -0.0940    -1.0240    -2.9590 c3         1 AXH       0.143100
     33 H1          -0.8510    -1.2790     2.8130 hn         1 AXH       0.490000
     34 H2          -0.5760     0.5030     1.9470 ha         1 AXH       0.112000
     35 H3          -3.5920     0.8900    -2.0010 ha         1 AXH       0.141000
     36 H4           3.7750     0.9680     2.6580 h4         1 AXH       0.151000
     37 H5           6.2750     2.5670    -0.8090 ha         1 AXH       0.114000
     38 H6           2.8850     2.0740    -3.4040 ha         1 AXH       0.107000
     39 H7          -2.9520     2.8610    -3.2010 h1         1 AXH       0.045033
     40 H8          -4.3530     3.1490    -2.1340 h1         1 AXH       0.045033
     41 H9          -3.3110     4.5010    -2.6240 h1         1 AXH       0.045033
     42 H10         -0.1950     2.5670     2.9230 h1         1 AXH       0.040033
     43 H11          1.0480     2.3150     1.6670 h1         1 AXH       0.040033
     44 H12          0.6070     3.9600     2.1700 h1         1 AXH       0.040033
     45 H13         -3.0470    -4.3480    -1.9480 hc         1 AXH       0.056033
     46 H14         -3.8320    -4.7420    -0.4090 hc         1 AXH       0.056033
     47 H15         -4.6560    -3.7050    -1.5790 hc         1 AXH       0.056033
     48 H16          0.4850    -3.3660     1.2080 h1         1 AXH       0.101700
     49 H17         -0.0500    -4.4360     3.3450 hc         1 AXH       0.048367
     50 H18          1.6830    -4.0600     3.2850 hc         1 AXH       0.048367
     51 H19          0.5850    -3.0560     4.2620 hc         1 AXH       0.048367
     52 H20          1.4870    -1.3910    -0.1980 ha         1 AXH       0.171000
     53 H21          5.1520     1.2550     0.9370 ha         1 AXH       0.115000
     54 H22          5.1570     2.9660    -2.9970 ha         1 AXH       0.113000
     55 H23          0.6940     0.5460    -0.8670 h1         1 AXH       0.036200
     56 H24          0.7690     1.5380    -2.3050 h1         1 AXH       0.036200
     57 H25          1.7150    -0.2550    -3.5330 hn         1 AXH       0.413000
     58 H27         -0.7200    -0.2590    -3.4390 h1         1 AXH       0.030033
     59 H28         -0.0240    -1.8850    -3.6370 h1         1 AXH       0.030033
     60 H29         -0.5960    -1.3560    -2.0420 h1         1 AXH       0.030033
@<TRIPOS>BOND
     1     1     2 1   
     2     1    22 1   
     3     1    33 1   
     4     2     3 ar  
     5     2    21 ar  
     6     3     4 ar  
     7     3    17 ar  
     8     4     5 ar  
     9     4    34 1   
    10     5     6 ar  
    11     5    15 1   
    12     6     7 ar  
    13     6    14 1   
    14     7    17 ar  
    15     7    35 1   
    16     8     9 2   
    17     8    26 1   
    18     8    36 1   
    19     9    10 1   
    20     9    25 1   
    21    10    27 ar  
    22    10    29 ar  
    23    11    27 ar  
    24    11    28 ar  
    25    11    37 1   
    26    12    28 ar  
    27    12    29 ar  
    28    12    38 1   
    29    13    14 1   
    30    13    39 1   
    31    13    40 1   
    32    13    41 1   
    33    15    16 1   
    34    16    42 1   
    35    16    43 1   
    36    16    44 1   
    37    17    18 ar  
    38    18    19 ar  
    39    19    20 1   
    40    19    21 ar  
    41    20    45 1   
    42    20    46 1   
    43    20    47 1   
    44    22    23 1   
    45    22    24 1   
    46    22    48 1   
    47    23    49 1   
    48    23    50 1   
    49    23    51 1   
    50    24    25 2   
    51    24    26 1   
    52    25    52 1   
    53    27    53 1   
    54    28    54 1   
    55    29    30 1   
    56    30    31 1   
    57    30    55 1   
    58    30    56 1   
    59    31    32 1   
    60    31    57 1   
    61    32    58 1   
    62    32    59 1   
    63    32    60 1   
@<TRIPOS>SUBSTRUCTURE
     1 AXH         1 TEMP              0 ****  ****    0 ROOT
