@<TRIPOS>MOLECULE
AXI
   46    49     1     0     0
SMALL
bcc


@<TRIPOS>ATOM
      1 O81          5.7180    -0.8830    -1.6190 o          1 AXI      -0.589100
      2 C80          5.9740    -0.2320    -0.6130 c          1 AXI       0.673700
      3 N82          7.0770    -0.4360     0.1170 ns         1 AXI      -0.569900
      4 C88          8.0650    -1.4250    -0.2460 c3         1 AXI       0.095300
      5 C23          5.0550     0.8430    -0.1400 ca         1 AXI      -0.146600
      6 C22          5.5710     2.0070     0.4270 ca         1 AXI      -0.099000
      7 C21          4.7400     3.0340     0.8430 ca         1 AXI      -0.146000
      8 C20          3.3690     2.8920     0.6960 ca         1 AXI      -0.097000
      9 C18          3.6670     0.7130    -0.3070 ca         1 AXI       0.070900
     10 C19          2.8380     1.7450     0.1280 ca         1 AXI      -0.143000
     11 S24          3.0070    -0.7600    -1.0500 ss         1 AXI      -0.128800
     12 C07          1.2880    -0.6480    -0.6210 ca         1 AXI      -0.033100
     13 C08          0.3910    -0.0390    -1.5470 ca         1 AXI      -0.112000
     14 C09         -0.9510     0.0290    -1.2980 ca         1 AXI      -0.088000
     15 C12          0.8470    -1.2090     0.5470 ca         1 AXI      -0.030000
     16 C11         -0.5370    -1.1480     0.8170 ca         1 AXI      -0.091000
     17 N15         -1.1890    -1.6210     1.8840 nc         1 AXI      -0.261400
     18 N14         -2.4510    -1.3130     1.6520 na         1 AXI       0.076800
     19 C13         -2.6920    -0.6620     0.4980 cc         1 AXI      -0.077100
     20 C10         -1.4300    -0.5300    -0.0970 ca         1 AXI      -0.105000
     21 C16         -3.9780    -0.2200     0.0290 ce         1 AXI      -0.057000
     22 C17         -5.1570    -0.4430     0.6270 cf         1 AXI      -0.243800
     23 C02         -6.4360     0.0380     0.1110 ca         1 AXI       0.464100
     24 N03         -6.4370     0.7520    -1.0170 nb         1 AXI      -0.674000
     25 C04         -7.5930     1.1880    -1.4900 ca         1 AXI       0.411200
     26 C05         -8.8160     0.9450    -0.8760 ca         1 AXI      -0.246300
     27 C06         -8.8200     0.2060     0.2960 ca         1 AXI      -0.088000
     28 C01         -7.6140    -0.2560     0.7990 ca         1 AXI      -0.235300
     29 H82          7.1800     0.0340     1.0010 hn         1 AXI       0.317500
     30 H881         8.4650    -1.2380    -1.2420 h1         1 AXI       0.040367
     31 H882         8.8820    -1.3700     0.4680 h1         1 AXI       0.040367
     32 H883         7.6550    -2.4360    -0.2250 h1         1 AXI       0.040367
     33 H22          6.6430     2.1240     0.5280 ha         1 AXI       0.129000
     34 H21          5.1600     3.9320     1.2740 ha         1 AXI       0.134000
     35 H20          2.7010     3.6800     1.0160 ha         1 AXI       0.133000
     36 H19          1.7650     1.6630     0.0240 ha         1 AXI       0.146000
     37 H08          0.7930     0.3770    -2.4620 ha         1 AXI       0.146000
     38 H12          1.5300    -1.6790     1.2440 ha         1 AXI       0.158000
     39 H09         -1.6190     0.4970    -2.0110 ha         1 AXI       0.140000
     40 H14         -3.1400    -1.5740     2.3430 hn         1 AXI       0.321700
     41 H16         -3.9620     0.3440    -0.8960 ha         1 AXI       0.166000
     42 H17         -5.2140    -1.0140     1.5480 ha         1 AXI       0.114000
     43 H01         -7.5820    -0.8380     1.7110 ha         1 AXI       0.140000
     44 H04         -7.5510     1.7630    -2.4080 h4         1 AXI       0.020100
     45 H05         -9.7310     1.3250    -1.3090 ha         1 AXI       0.144000
     46 H06         -9.7460    -0.0080     0.8130 ha         1 AXI       0.139000
@<TRIPOS>BOND
     1     1     2 2   
     2     2     3 1   
     3     2     5 1   
     4     3     4 1   
     5     3    29 1   
     6     4    30 1   
     7     4    31 1   
     8     4    32 1   
     9     5     6 ar  
    10     5     9 ar  
    11     6     7 ar  
    12     6    33 1   
    13     7     8 ar  
    14     7    34 1   
    15     8    10 ar  
    16     8    35 1   
    17     9    10 ar  
    18     9    11 1   
    19    10    36 1   
    20    11    12 1   
    21    12    13 ar  
    22    12    15 ar  
    23    13    14 ar  
    24    13    37 1   
    25    14    20 ar  
    26    14    39 1   
    27    15    16 ar  
    28    15    38 1   
    29    16    17 2   
    30    16    20 ar  
    31    17    18 1   
    32    18    19 1   
    33    18    40 1   
    34    19    20 2   
    35    19    21 1   
    36    21    22 2   
    37    21    41 1   
    38    22    23 1   
    39    22    42 1   
    40    23    24 ar  
    41    23    28 ar  
    42    24    25 ar  
    43    25    26 ar  
    44    25    44 1   
    45    26    27 ar  
    46    26    45 1   
    47    27    28 ar  
    48    27    46 1   
    49    28    43 1   
@<TRIPOS>SUBSTRUCTURE
     1 AXI         1 TEMP              0 ****  ****    0 ROOT
