@<TRIPOS>MOLECULE
AXI
   46    49     1     0     0
SMALL
No Charge or Current Charge


@<TRIPOS>ATOM
      1 O81          5.6240    -0.9930    -1.5870 o          1 AXI      -0.589100
      2 C80          5.6530    -0.4920    -0.4720 c          1 AXI       0.606700
      3 N82          6.3880    -1.0770     0.5380 ns         1 AXI      -0.502900
      4 C88          7.1530    -2.3170     0.3940 c3         1 AXI       0.095300
      5 C23          4.9610     0.8160    -0.1140 ca         1 AXI      -0.146600
      6 C22          5.4650     1.6020     0.9560 ca         1 AXI      -0.081000
      7 C21          4.8610     2.8180     1.3120 ca         1 AXI      -0.128000
      8 C20          3.7410     3.2790     0.6110 ca         1 AXI      -0.079000
      9 C18          3.8170     1.2960    -0.8170 ca         1 AXI      -0.056000
     10 C19          3.2240     2.5200    -0.4470 ca         1 AXI      -0.125000
     11 S24          3.0370     0.3780    -2.1530 ss         1 AXI       0.125000
     12 C07          1.3760     0.2160    -1.4970 ca         1 AXI      -0.160000
     13 C08          0.2680     0.4450    -2.3470 ca         1 AXI      -0.094000
     14 C09         -1.0450     0.3220    -1.8500 ca         1 AXI      -0.070000
     15 C12          1.1730    -0.1470    -0.1450 ca         1 AXI      -0.012000
     16 C11         -0.1410    -0.2670     0.3360 ca         1 AXI      -0.091000
     17 N15         -0.5240    -0.6120     1.6340 nc         1 AXI      -0.261400
     18 N14         -1.9240    -0.5810     1.5520 na         1 AXI       0.026500
     19 C13         -2.3750    -0.2370     0.2800 cc         1 AXI      -0.077100
     20 C10         -1.2040    -0.0350    -0.5040 ca         1 AXI      -0.105000
     21 C16         -3.7720    -0.1180    -0.1290 ce         1 AXI      -0.107000
     22 C17         -4.8770    -0.3190     0.6490 cf         1 AXI      -0.293800
     23 C02         -6.2980    -0.2110     0.2810 ca         1 AXI       0.398800
     24 N03         -6.5790     0.1330    -0.9960 nb         1 AXI      -0.674000
     25 C04         -7.8790     0.2380    -1.3570 ca         1 AXI       0.345900
     26 C05         -8.9410     0.0070    -0.4660 ca         1 AXI      -0.163000
     27 C06         -8.6530    -0.3500     0.8610 ca         1 AXI      -0.070000
     28 C01         -7.3040    -0.4600     1.2350 ca         1 AXI      -0.152000
     29 H82          6.3630    -0.6240     1.4430 hn         1 AXI       0.317500
     30 H881         7.9230    -2.1890    -0.3780 h1         1 AXI       0.040367
     31 H882         7.6350    -2.5640     1.3480 h1         1 AXI       0.040367
     32 H883         6.4810    -3.1360     0.1060 h1         1 AXI       0.040367
     33 H22          6.3480     1.2930     1.5110 ha         1 AXI       0.111000
     34 H21          5.2680     3.4070     2.1310 ha         1 AXI       0.116000
     35 H20          3.2720     4.2210     0.8870 ha         1 AXI       0.115000
     36 H19          2.3480     2.8810    -0.9830 ha         1 AXI       0.128000
     37 H08          0.4260     0.7210    -3.3870 ha         1 AXI       0.128000
     38 H12          2.0160    -0.3340     0.5170 ha         1 AXI       0.140000
     39 H09         -1.9030     0.4980    -2.4940 ha         1 AXI       0.122000
     40 H14         -2.4970    -0.7930     2.3610 hn         1 AXI       0.372000
     41 H16         -3.9170     0.1630    -1.1750 ha         1 AXI       0.216000
     42 H17         -4.7230    -0.5990     1.6900 ha         1 AXI       0.164000
     43 H01         -7.0400    -0.7340     2.2530 ha         1 AXI       0.122000
     44 H04         -8.0750     0.5160    -2.3920 h4         1 AXI       0.020100
     45 H05         -9.9680     0.1050    -0.8060 ha         1 AXI       0.126000
     46 H06         -9.4510    -0.5370     1.5770 ha         1 AXI       0.121000
@<TRIPOS>BOND
     1     1     2 2   
     2     2     3 1   
     3     2     5 1   
     4     3     4 1   
     5     3    29 1   
     6     4    30 1   
     7     4    31 1   
     8     4    32 1   
     9     5     6 ar  
    10     5     9 ar  
    11     6     7 ar  
    12     6    33 1   
    13     7     8 ar  
    14     7    34 1   
    15     8    10 ar  
    16     8    35 1   
    17     9    10 ar  
    18     9    11 1   
    19    10    36 1   
    20    11    12 1   
    21    12    13 ar  
    22    12    15 ar  
    23    13    14 ar  
    24    13    37 1   
    25    14    20 ar  
    26    14    39 1   
    27    15    16 ar  
    28    15    38 1   
    29    16    17 2   
    30    16    20 ar  
    31    17    18 1   
    32    18    19 1   
    33    18    40 1   
    34    19    20 2   
    35    19    21 1   
    36    21    22 2   
    37    21    41 1   
    38    22    23 1   
    39    22    42 1   
    40    23    24 ar  
    41    23    28 ar  
    42    24    25 ar  
    43    25    26 ar  
    44    25    44 1   
    45    26    27 ar  
    46    26    45 1   
    47    27    28 ar  
    48    27    46 1   
    49    28    43 1   
@<TRIPOS>SUBSTRUCTURE
     1 AXI         1 TEMP              0 ****  ****    0 ROOT
