@<TRIPOS>MOLECULE
AXJ
   42    44     1     0     0
SMALL
bcc


@<TRIPOS>ATOM
      1 N1          -1.5470    -0.0240     0.3100 n3         1 AXJ      -0.698600
      2 C4           2.6370     1.7690    -0.8150 c6         1 AXJ      -0.038200
      3 C5           1.2380     1.7780    -0.2650 c2         1 AXJ      -0.151200
      4 C6           0.8030     0.7500     0.4630 c2         1 AXJ      -0.116400
      5 C7           1.7960    -0.3600     0.7240 cy         1 AXJ      -0.035500
      6 C8           3.1120     0.3250     1.1680 cy         1 AXJ      -0.090400
      7 C10         -1.2790    -1.4450     0.2080 c5         1 AXJ       0.158800
      8 C13         -2.9010     0.0690     0.8450 c5         1 AXJ       0.174500
      9 C2           2.5450    -0.7580    -0.5910 cy         1 AXJ      -0.056000
     10 C3           3.3860     0.5250    -0.3370 cy         1 AXJ      -0.072700
     11 C9          -0.5680     0.7180     1.0790 c3         1 AXJ       0.219000
     12 C11         -2.5630    -2.0060    -0.3930 c5         1 AXJ      -0.078400
     13 C12         -3.6590    -1.0680     0.1400 c5         1 AXJ      -0.073400
     14 C14         -3.5420     1.4320     0.6700 c3         1 AXJ       0.148400
     15 O1          -3.5730     1.7850    -0.6920 oh         1 AXJ      -0.575800
     16 H2           2.6180     1.8150    -1.9100 hc         1 AXJ       0.048700
     17 H3           3.1700     2.6710    -0.4930 hc         1 AXJ       0.048700
     18 H4           0.6030     2.6360    -0.4650 ha         1 AXJ       0.130000
     19 H5           1.3840    -1.1610     1.3420 hc         1 AXJ       0.065700
     20 H6           3.0160     1.2150     1.7910 hc         1 AXJ       0.050700
     21 H7           3.8190    -0.3560     1.6400 hc         1 AXJ       0.050700
     22 H8          -0.4050    -1.6420    -0.4140 h1         1 AXJ       0.036700
     23 H9          -1.0850    -1.8970     1.1980 h1         1 AXJ       0.036700
     24 H10         -2.9000    -0.1290     1.9340 h1         1 AXJ       0.020700
     25 H11          1.0480    -0.0800    -2.0440 hc         1 AXJ       0.035367
     26 H12          2.4730    -0.8490    -2.7430 hc         1 AXJ       0.035367
     27 H13          1.2450    -1.8250    -1.9500 hc         1 AXJ       0.035367
     28 H14          2.7210    -2.9070    -0.3870 hc         1 AXJ       0.035367
     29 H15          4.0610    -2.1560    -1.2500 hc         1 AXJ       0.035367
     30 H16          3.9650    -2.0410     0.5010 hc         1 AXJ       0.035367
     31 H17          4.4230     0.5220    -0.6820 hc         1 AXJ       0.062700
     32 H18         -0.9210     1.7470     1.1790 h1         1 AXJ       0.030200
     33 H19         -0.4880     0.3160     2.1070 h1         1 AXJ       0.030200
     34 H20         -2.5170    -1.9640    -1.4820 hc         1 AXJ       0.047700
     35 H21         -2.7210    -3.0480    -0.1150 hc         1 AXJ       0.047700
     36 H22         -4.3260    -1.5710     0.8410 hc         1 AXJ       0.049200
     37 H23         -4.2760    -0.6850    -0.6730 hc         1 AXJ       0.049200
     38 H24         -4.5510     1.3740     1.1010 h1         1 AXJ       0.013700
     39 H25         -3.0010     2.1810     1.2630 h1         1 AXJ       0.013700
     40 H26         -4.1110     2.5770    -0.7790 ho         1 AXJ       0.394000
     41 C15          1.7800    -0.8740    -1.8990 c3         1 AXJ      -0.077600
     42 C1           3.3710    -2.0300    -0.4120 c3         1 AXJ      -0.077600
@<TRIPOS>BOND
     1     1     7 1   
     2     1     8 1   
     3     1    11 1   
     4     2     3 1   
     5     2    10 1   
     6     2    16 1   
     7     2    17 1   
     8     3     4 2   
     9     3    18 1   
    10     4     5 1   
    11     4    11 1   
    12     5     6 1   
    13     5     9 1   
    14     5    19 1   
    15     6    10 1   
    16     6    20 1   
    17     6    21 1   
    18     7    12 1   
    19     7    22 1   
    20     7    23 1   
    21     8    13 1   
    22     8    14 1   
    23     8    24 1   
    24     9    10 1   
    25     9    41 1   
    26     9    42 1   
    27    10    31 1   
    28    11    32 1   
    29    11    33 1   
    30    12    13 1   
    31    12    34 1   
    32    12    35 1   
    33    13    36 1   
    34    13    37 1   
    35    14    15 1   
    36    14    38 1   
    37    14    39 1   
    38    15    40 1   
    39    25    41 1   
    40    26    41 1   
    41    27    41 1   
    42    28    42 1   
    43    29    42 1   
    44    30    42 1   
@<TRIPOS>SUBSTRUCTURE
     1 AXJ         1 TEMP              0 ****  ****    0 ROOT
