@<TRIPOS>MOLECULE
AXJ
   42    44     1     0     0
SMALL
No Charge or Current Charge


@<TRIPOS>ATOM
      1 N1          -1.7290     0.0620     0.1330 n3         1 AXJ      -0.698600
      2 C4           2.2770     1.3570    -1.5490 c6         1 AXJ      -0.038200
      3 C5           0.8980     1.2260    -0.9000 c2         1 AXJ      -0.201200
      4 C6           0.7350     0.5380     0.2470 c2         1 AXJ      -0.116400
      5 C7           2.0210    -0.0510     0.8340 cy         1 AXJ      -0.035500
      6 C8           3.1750     1.0210     0.8460 cy         1 AXJ      -0.090400
      7 C10         -1.6120    -1.2010    -0.6330 c5         1 AXJ       0.158800
      8 C13         -3.0420    -0.0790     0.8180 c5         1 AXJ       0.174500
      9 C2           2.9250    -0.8400    -0.2090 cy         1 AXJ      -0.056000
     10 C3           3.3500     0.6230    -0.6670 cy         1 AXJ      -0.072700
     11 C9          -0.5740     0.3710     1.0070 c3         1 AXJ       0.219000
     12 C11         -3.0370    -1.3990    -1.2290 c5         1 AXJ      -0.078400
     13 C12         -3.9370    -0.4330    -0.4000 c5         1 AXJ      -0.073400
     14 C14         -3.5560     1.1370     1.6650 c3         1 AXJ       0.171600
     15 O1          -3.6500     2.3550     0.9020 oh         1 AXJ      -0.638000
     16 H2           2.2600     0.9350    -2.5640 hc         1 AXJ       0.048700
     17 H3           2.5390     2.4190    -1.6520 hc         1 AXJ       0.048700
     18 H4           0.0560     1.7090    -1.3960 ha         1 AXJ       0.180000
     19 H5           1.8540    -0.5640     1.7880 hc         1 AXJ       0.065700
     20 H6           2.8670     2.0540     1.0400 hc         1 AXJ       0.050700
     21 H7           4.0260     0.8050     1.5010 hc         1 AXJ       0.050700
     22 H8          -0.8500    -1.1430    -1.4200 h1         1 AXJ       0.036700
     23 H9          -1.3510    -2.0400     0.0290 h1         1 AXJ       0.036700
     24 H10         -3.0060    -0.9370     1.5050 h1         1 AXJ       0.020700
     25 H11          1.4020    -1.2340    -1.7790 hc         1 AXJ       0.035367
     26 H12          2.9080    -2.1070    -2.0070 hc         1 AXJ       0.035367
     27 H13          1.7610    -2.6220    -0.7600 hc         1 AXJ       0.035367
     28 H14          3.6260    -2.6400     0.8480 hc         1 AXJ       0.035367
     29 H15          4.7430    -2.0690    -0.4010 hc         1 AXJ       0.035367
     30 H16          4.6510    -1.2440     1.1490 hc         1 AXJ       0.035367
     31 H17          4.3550     0.7310    -1.0880 hc         1 AXJ       0.062700
     32 H18         -0.7630     1.3040     1.5550 h1         1 AXJ       0.030200
     33 H19         -0.4600    -0.4220     1.7590 h1         1 AXJ       0.030200
     34 H20         -3.0650    -1.1460    -2.2950 hc         1 AXJ       0.047700
     35 H21         -3.3580    -2.4420    -1.1370 hc         1 AXJ       0.047700
     36 H22         -4.8820    -0.8990    -0.0980 hc         1 AXJ       0.049200
     37 H23         -4.1880     0.4580    -0.9860 hc         1 AXJ       0.049200
     38 H24         -4.5410     0.8790     2.0750 h1         1 AXJ       0.013700
     39 H25         -2.8810     1.2820     2.5180 h1         1 AXJ       0.013700
     40 H26         -3.9220     3.0610     1.5280 ho         1 AXJ       0.433000
     41 C15          2.2070    -1.7450    -1.2450 c3         1 AXJ      -0.077600
     42 C1           4.0480    -1.7410     0.3820 c3         1 AXJ      -0.077600
@<TRIPOS>BOND
     1     1     7 1   
     2     1     8 1   
     3     1    11 1   
     4     2     3 1   
     5     2    10 1   
     6     2    16 1   
     7     2    17 1   
     8     3     4 2   
     9     3    18 1   
    10     4     5 1   
    11     4    11 1   
    12     5     6 1   
    13     5     9 1   
    14     5    19 1   
    15     6    10 1   
    16     6    20 1   
    17     6    21 1   
    18     7    12 1   
    19     7    22 1   
    20     7    23 1   
    21     8    13 1   
    22     8    14 1   
    23     8    24 1   
    24     9    10 1   
    25     9    41 1   
    26     9    42 1   
    27    10    31 1   
    28    11    32 1   
    29    11    33 1   
    30    12    13 1   
    31    12    34 1   
    32    12    35 1   
    33    13    36 1   
    34    13    37 1   
    35    14    15 1   
    36    14    38 1   
    37    14    39 1   
    38    15    40 1   
    39    25    41 1   
    40    26    41 1   
    41    27    41 1   
    42    28    42 1   
    43    29    42 1   
    44    30    42 1   
@<TRIPOS>SUBSTRUCTURE
     1 AXJ         1 TEMP              0 ****  ****    0 ROOT
