@<TRIPOS>MOLECULE
AXK
   43    45     1     0     0
SMALL
No Charge or Current Charge


@<TRIPOS>ATOM
      1 C2          -4.3020     1.7890     0.5280 ca         1 AXK      -0.123500
      2 C4          -3.5810    -0.0800    -0.8390 ca         1 AXK      -0.123500
      3 C5          -2.9600     2.1300     0.7690 ca         1 AXK      -0.090500
      4 C6          -1.8990     1.3740     0.2110 cp         1 AXK      -0.162000
      5 C8          -0.4680     1.7390     0.4680 cp         1 AXK       0.051000
      6 C9           2.2450     2.4260     0.9530 ca         1 AXK      -0.131000
      7 C10          1.8760     1.8930    -0.2990 ca         1 AXK      -0.153300
      8 C11         -0.0620     2.2810     1.7120 ca         1 AXK      -0.110000
      9 C12          1.2790     2.6190     1.9530 ca         1 AXK      -0.120000
     10 C1          -4.6260     0.6790    -0.2760 ca         1 AXK       0.070700
     11 C3          -2.2390     0.2610    -0.5980 ca         1 AXK      -0.090500
     12 C7           0.5260     1.5540    -0.5270 ca         1 AXK      -0.117000
     13 C13         -6.0890     0.3230    -0.5440 c3         1 AXK      -0.116400
     14 P14         -6.5940    -1.3120     0.2860 p5         1 AXK       1.246500
     15 O15         -5.8350    -1.5040     1.5560 o          1 AXK      -0.887500
     16 O16         -8.0590    -1.2740     0.5700 o          1 AXK      -0.887500
     17 O17         -6.2980    -2.4180    -0.6730 o          1 AXK      -0.887500
     18 O18         -6.3790     0.4240    -1.9760 oh         1 AXK      -0.735000
     19 C19          2.9140     1.6690    -1.3970 c3         1 AXK       0.269900
     20 O20          3.6470     2.8760    -1.6260 oh         1 AXK      -0.671000
     21 C21          3.8470     0.5020    -1.0610 ca         1 AXK      -0.049300
     22 C22          5.5230    -1.6890    -0.4380 ca         1 AXK       0.111000
     23 C23          4.3590    -1.8850    -1.1980 ca         1 AXK      -0.097000
     24 C24          3.5240    -0.7960    -1.5060 ca         1 AXK      -0.084000
     25 C25          5.0170     0.6910    -0.2940 ca         1 AXK      -0.076000
     26 C26          5.8530    -0.3950     0.0160 ca         1 AXK       0.110000
     27 Cl7          7.3060    -0.1090     0.9770 cl         1 AXK      -0.204000
     28 Cl8          6.5490    -3.0760    -0.0670 cl         1 AXK      -0.199000
     29 H1          -5.0930     2.3930     0.9640 ha         1 AXK       0.118000
     30 H2          -3.8110    -0.9400    -1.4630 ha         1 AXK       0.118000
     31 H3          -2.7450     3.0000     1.3840 ha         1 AXK       0.071500
     32 H4           3.2800     2.6910     1.1540 ha         1 AXK       0.099000
     33 H5          -0.7920     2.4250     2.5040 ha         1 AXK       0.126000
     34 H6           1.5710     3.0290     2.9170 ha         1 AXK       0.095000
     35 H7          -1.4580    -0.3540    -1.0360 ha         1 AXK       0.071500
     36 H8           0.2380     1.1500    -1.4950 ha         1 AXK       0.111000
     37 H9          -6.7090     1.0530    -0.0080 h1         1 AXK       0.044700
     38 H12         -6.3290    -0.4970    -2.3350 ho         1 AXK       0.490000
     39 H13          2.3800     1.4080    -2.3210 h1         1 AXK       0.043700
     40 H14          2.9760     3.5900    -1.6750 ho         1 AXK       0.455000
     41 H15          4.1020    -2.8830    -1.5460 ha         1 AXK       0.132000
     42 H16          2.6210    -0.9630    -2.0910 ha         1 AXK       0.137000
     43 H17          5.2820     1.6820     0.0650 ha         1 AXK       0.143000
@<TRIPOS>BOND
     1     1     3 ar  
     2     1    10 ar  
     3     1    29 1   
     4     2    10 ar  
     5     2    11 ar  
     6     2    30 1   
     7     3     4 ar  
     8     3    31 1   
     9     4     5 1   
    10     4    11 ar  
    11     5     8 ar  
    12     5    12 ar  
    13     6     7 ar  
    14     6     9 ar  
    15     6    32 1   
    16     7    12 ar  
    17     7    19 1   
    18     8     9 ar  
    19     8    33 1   
    20     9    34 1   
    21    10    13 1   
    22    11    35 1   
    23    12    36 1   
    24    13    14 1   
    25    13    18 1   
    26    13    37 1   
    27    14    15 1   
    28    14    16 1   
    29    14    17 1   
    30    18    38 1   
    31    19    20 1   
    32    19    21 1   
    33    19    39 1   
    34    20    40 1   
    35    21    24 ar  
    36    21    25 ar  
    37    22    23 ar  
    38    22    26 ar  
    39    22    28 1   
    40    23    24 ar  
    41    23    41 1   
    42    24    42 1   
    43    25    26 ar  
    44    25    43 1   
    45    26    27 1   
@<TRIPOS>SUBSTRUCTURE
     1 AXK         1 TEMP              0 ****  ****    0 ROOT
