@<TRIPOS>MOLECULE
AXK
   43    45     1     0     0
SMALL
bcc


@<TRIPOS>ATOM
      1 C2          -4.2380     1.5920     0.4640 ca         1 AXK      -0.141500
      2 C4          -3.4810    -0.0420    -1.0950 ca         1 AXK      -0.141500
      3 C5          -2.9300     1.9000     0.7890 ca         1 AXK      -0.108500
      4 C6          -1.8610     1.2380     0.1770 cp         1 AXK      -0.162000
      5 C8          -0.4630     1.5780     0.5040 cp         1 AXK       0.051000
      6 C9           2.1960     2.2490     1.0940 ca         1 AXK      -0.149000
      7 C10          1.8490     1.8590    -0.1970 ca         1 AXK      -0.153300
      8 C11         -0.0920     1.9630     1.7920 ca         1 AXK      -0.128000
      9 C12          1.2250     2.2990     2.0800 ca         1 AXK      -0.138000
     10 C1          -4.5450     0.6230    -0.4920 ca         1 AXK       0.070700
     11 C3          -2.1660     0.2580    -0.7660 ca         1 AXK      -0.108500
     12 C7           0.5300     1.5370    -0.4800 ca         1 AXK      -0.135000
     13 C13         -5.9690     0.3090    -0.8170 c3         1 AXK       0.018200
     14 P14         -6.7660    -0.8600     0.4650 p5         1 AXK       1.088700
     15 O15         -5.9610    -0.7850     1.7560 o          1 AXK      -0.887500
     16 O16         -8.2210    -0.4070     0.5890 o          1 AXK      -0.887500
     17 O17         -6.5960    -2.1840    -0.3240 o          1 AXK      -0.887500
     18 O18         -6.1090    -0.3440    -2.0620 oh         1 AXK      -0.672800
     19 C19          2.8970     1.7950    -1.2900 c3         1 AXK       0.246700
     20 O20          3.6560     2.9710    -1.3700 oh         1 AXK      -0.608800
     21 C21          3.8310     0.6350    -1.0310 ca         1 AXK      -0.049300
     22 C22          5.4790    -1.5540    -0.5070 ca         1 AXK       0.019400
     23 C23          4.1930    -1.7510    -0.9900 ca         1 AXK      -0.115000
     24 C24          3.3790    -0.6640    -1.2490 ca         1 AXK      -0.102000
     25 C25          5.1180     0.8280    -0.5520 ca         1 AXK      -0.094000
     26 C26          5.9370    -0.2620    -0.2900 ca         1 AXK       0.018400
     27 CL7          7.5320     0.0130     0.3030 cl         1 AXK      -0.112400
     28 CL8          6.4860    -2.9150    -0.1900 cl         1 AXK      -0.107400
     29 H1          -5.0410     2.1380     0.9460 ha         1 AXK       0.136000
     30 H2          -3.6720    -0.8010    -1.8420 ha         1 AXK       0.136000
     31 H3          -2.7380     2.6840     1.5120 ha         1 AXK       0.089500
     32 H4           3.2210     2.5070     1.3330 ha         1 AXK       0.117000
     33 H5          -0.8300     1.9850     2.5840 ha         1 AXK       0.144000
     34 H6           1.4940     2.5910     3.0870 ha         1 AXK       0.113000
     35 H7          -1.3680    -0.2950    -1.2470 ha         1 AXK       0.089500
     36 H8           0.2620     1.2720    -1.4970 ha         1 AXK       0.129000
     37 H9          -6.5360     1.2490    -0.8290 h1         1 AXK       0.044700
     38 H12         -6.2660    -1.2740    -1.7700 ho         1 AXK       0.451000
     39 H13          2.3800     1.5960    -2.2400 h1         1 AXK       0.043700
     40 H14          3.0550     3.7140    -1.4830 ho         1 AXK       0.416000
     41 H15          3.8330    -2.7550    -1.1650 ha         1 AXK       0.150000
     42 H16          2.3780    -0.8370    -1.6250 ha         1 AXK       0.155000
     43 H17          5.5010     1.8230    -0.3760 ha         1 AXK       0.161000
@<TRIPOS>BOND
     1     1     3 ar  
     2     1    10 ar  
     3     1    29 1   
     4     2    10 ar  
     5     2    11 ar  
     6     2    30 1   
     7     3     4 ar  
     8     3    31 1   
     9     4     5 1   
    10     4    11 ar  
    11     5     8 ar  
    12     5    12 ar  
    13     6     7 ar  
    14     6     9 ar  
    15     6    32 1   
    16     7    12 ar  
    17     7    19 1   
    18     8     9 ar  
    19     8    33 1   
    20     9    34 1   
    21    10    13 1   
    22    11    35 1   
    23    12    36 1   
    24    13    14 1   
    25    13    18 1   
    26    13    37 1   
    27    14    15 1   
    28    14    16 1   
    29    14    17 1   
    30    18    38 1   
    31    19    20 1   
    32    19    21 1   
    33    19    39 1   
    34    20    40 1   
    35    21    24 ar  
    36    21    25 ar  
    37    22    23 ar  
    38    22    26 ar  
    39    22    28 1   
    40    23    24 ar  
    41    23    41 1   
    42    24    42 1   
    43    25    26 ar  
    44    25    43 1   
    45    26    27 1   
@<TRIPOS>SUBSTRUCTURE
     1 AXK         1 TEMP              0 ****  ****    0 ROOT
