@<TRIPOS>MOLECULE
AXL
   45    46     1     0     0
SMALL
abcg2


@<TRIPOS>ATOM
      1 C1          77.7600     3.8980    28.7510 c          1 AXL       0.582900
      2 O1          77.9970     2.7890    29.1660 o          1 AXL      -0.544100
      3 C2          78.3190     5.1720    29.3490 c3         1 AXL      -0.014300
      4 C3          78.9240     6.0010    28.2080 c5         1 AXL       0.347500
      5 S4          79.5200     7.6880    28.7430 ss         1 AXL      -0.579000
      6 C5          81.0530     7.5760    27.6990 c5         1 AXL       0.129000
      7 C51         82.2630     7.3560    28.6100 c3         1 AXL      -0.071600
      8 C52         81.2300     8.8650    26.9010 c3         1 AXL      -0.071600
      9 C6          80.8280     6.3000    26.8110 c5         1 AXL       0.028500
     10 C61         80.2150     6.6140    25.4230 c          1 AXL       0.730000
     11 O62         78.9680     6.7230    25.3330 o          1 AXL      -0.719000
     12 O63         81.0440     6.7490    24.4880 o          1 AXL      -0.719000
     13 N7          80.0350     5.3340    27.5770 n7         1 AXL      -0.812400
     14 N8          79.2100     4.8850    30.4430 ns         1 AXL      -0.478900
     15 C9          79.1430     5.5210    31.6310 c          1 AXL       0.612100
     16 O91         78.3390     6.4150    31.8740 o          1 AXL      -0.603100
     17 C10         80.1960     5.0830    32.6550 c3         1 AXL       0.136800
     18 N11         79.6400     5.2680    33.9940 n8         1 AXL      -0.988200
     19 C12         81.4900     5.8340    32.3710 ca         1 AXL      -0.159300
     20 C13         81.5870     7.2090    32.5900 ca         1 AXL      -0.054500
     21 C14         82.7600     7.8960    32.3220 ca         1 AXL      -0.168500
     22 C15         83.8660     7.2080    31.8230 ca         1 AXL       0.137100
     23 C16         83.7900     5.8360    31.6060 ca         1 AXL      -0.168500
     24 C17         82.6050     5.1620    31.8780 ca         1 AXL      -0.054500
     25 O18         84.9940     7.9310    31.5580 oh         1 AXL      -0.540100
     26 HC1         77.1010     4.0580    27.8800 h4         1 AXL       0.016200
     27 HC2         77.4680     5.7350    29.7440 h1         1 AXL       0.104700
     28 HC3         78.1520     6.1780    27.4650 h2         1 AXL       0.134700
     29 H511        83.1760     7.3140    28.0080 hc         1 AXL       0.036033
     30 H512        82.3630     8.1700    29.3280 hc         1 AXL       0.036033
     31 H513        82.1770     6.4270    29.1720 hc         1 AXL       0.036033
     32 H521        82.1140     8.7860    26.2640 hc         1 AXL       0.036033
     33 H522        80.3660     9.0680    26.2700 hc         1 AXL       0.036033
     34 H523        81.3740     9.7120    27.5740 hc         1 AXL       0.036033
     35 HC6         81.8030     5.8510    26.6260 h1         1 AXL       0.059700
     36 HN7         80.6360     4.9330    28.2900 hn         1 AXL       0.378000
     37 HN8         79.8020     4.0710    30.3690 hn         1 AXL       0.320500
     38 H10         80.3940     4.0190    32.5040 h1         1 AXL       0.068700
     39 H111        80.3890     5.2450    34.6770 hn         1 AXL       0.407000
     40 H112        79.2110     6.1860    34.0500 hn         1 AXL       0.407000
     41 H13         80.7330     7.7550    32.9710 ha         1 AXL       0.118000
     42 H14         82.8290     8.9640    32.4850 ha         1 AXL       0.120000
     43 H16         84.6510     5.3030    31.2200 ha         1 AXL       0.120000
     44 H17         82.5500     4.0940    31.7010 ha         1 AXL       0.118000
     45 H18O        85.6830     7.3480    31.2110 ho         1 AXL       0.459000
@<TRIPOS>BOND
     1     1     2 2   
     2     1     3 1   
     3     1    26 1   
     4     3     4 1   
     5     3    14 1   
     6     3    27 1   
     7     4     5 1   
     8     4    13 1   
     9     4    28 1   
    10     5     6 1   
    11     6     7 1   
    12     6     8 1   
    13     6     9 1   
    14     7    29 1   
    15     7    30 1   
    16     7    31 1   
    17     8    32 1   
    18     8    33 1   
    19     8    34 1   
    20     9    10 1   
    21     9    13 1   
    22     9    35 1   
    23    10    11 1   
    24    10    12 1   
    25    13    36 1   
    26    14    15 1   
    27    14    37 1   
    28    15    16 2   
    29    15    17 1   
    30    17    18 1   
    31    17    19 1   
    32    17    38 1   
    33    18    39 1   
    34    18    40 1   
    35    19    20 ar  
    36    19    24 ar  
    37    20    21 ar  
    38    20    41 1   
    39    21    22 ar  
    40    21    42 1   
    41    22    23 ar  
    42    22    25 1   
    43    23    24 ar  
    44    23    43 1   
    45    24    44 1   
    46    25    45 1   
@<TRIPOS>SUBSTRUCTURE
     1 AXL         1 TEMP              0 ****  ****    0 ROOT
