@<TRIPOS>MOLECULE
AXL
   45    46     1     0     0
SMALL
No Charge or Current Charge


@<TRIPOS>ATOM
      1 C1          77.7150     3.9280    28.6120 c          1 AXL       0.582900
      2 O1          77.8710     2.7860    29.0430 o          1 AXL      -0.544100
      3 C2          78.2770     5.1980    29.2850 c3         1 AXL      -0.014300
      4 C3          79.0450     6.0320    28.2270 c5         1 AXL       0.347500
      5 S4          79.6530     7.6310    28.9220 ss         1 AXL      -0.579000
      6 C5          80.9830     7.7770    27.6270 c5         1 AXL       0.129000
      7 C51         82.3140     8.0550    28.3700 c3         1 AXL      -0.071600
      8 C52         80.6560     9.0010    26.7300 c3         1 AXL      -0.071600
      9 C6          81.0140     6.3710    26.9110 c5         1 AXL       0.028500
     10 C61         80.4860     6.4530    25.4110 c          1 AXL       0.730000
     11 O62         79.2940     6.3160    25.1610 o          1 AXL      -0.719000
     12 O63         81.3130     6.5390    24.5120 o          1 AXL      -0.719000
     13 N7          80.3260     5.4100    27.8590 n7         1 AXL      -0.812400
     14 N8          79.0700     4.8560    30.5040 ns         1 AXL      -0.478900
     15 C9          78.9950     5.5180    31.7150 c          1 AXL       0.612100
     16 O91         78.1480     6.3800    31.9340 o          1 AXL      -0.603100
     17 C10         80.0780     5.0750    32.7740 c3         1 AXL       0.136800
     18 N11         79.7640     5.3380    34.2150 n8         1 AXL      -0.988200
     19 C12         81.4390     5.6850    32.4450 ca         1 AXL      -0.159300
     20 C13         81.5790     7.0790    32.2730 ca         1 AXL      -0.054500
     21 C14         82.8330     7.6320    31.9620 ca         1 AXL      -0.168500
     22 C15         83.9530     6.8020    31.8160 ca         1 AXL       0.137100
     23 C16         83.8230     5.4140    31.9830 ca         1 AXL      -0.168500
     24 C17         82.5710     4.8570    32.2980 ca         1 AXL      -0.054500
     25 O18         85.1630     7.3480    31.5100 oh         1 AXL      -0.540100
     26 HC1         77.1320     4.1080    27.6810 h4         1 AXL       0.016200
     27 HC2         77.4000     5.7840    29.5810 h1         1 AXL       0.104700
     28 HC3         78.3960     6.2250    27.3590 h2         1 AXL       0.134700
     29 H511        83.1460     8.1670    27.6640 hc         1 AXL       0.036033
     30 H512        82.2580     8.9720    28.9680 hc         1 AXL       0.036033
     31 H513        82.5670     7.2320    29.0490 hc         1 AXL       0.036033
     32 H521        81.3990     9.1220    25.9320 hc         1 AXL       0.036033
     33 H522        79.6680     8.9100    26.2640 hc         1 AXL       0.036033
     34 H523        80.6490     9.9290    27.3150 hc         1 AXL       0.036033
     35 HC6         82.0590     6.0480    26.8060 h1         1 AXL       0.059700
     36 HN7         80.8720     5.3740    28.7230 hn         1 AXL       0.378000
     37 HN8         79.7760     4.1320    30.4280 hn         1 AXL       0.320500
     38 H10         80.1610     3.9840    32.6640 h1         1 AXL       0.068700
     39 H111        80.5880     5.0980    34.7790 hn         1 AXL       0.407000
     40 H112        79.6710     6.3520    34.3460 hn         1 AXL       0.407000
     41 H13         80.7170     7.7360    32.3760 ha         1 AXL       0.118000
     42 H14         82.9330     8.7060    31.8280 ha         1 AXL       0.120000
     43 H16         84.6860     4.7620    31.8720 ha         1 AXL       0.120000
     44 H17         82.4830     3.7800    32.4260 ha         1 AXL       0.118000
     45 H18O        85.8240     6.6250    31.4520 ho         1 AXL       0.459000
@<TRIPOS>BOND
     1     1     2 2   
     2     1     3 1   
     3     1    26 1   
     4     3     4 1   
     5     3    14 1   
     6     3    27 1   
     7     4     5 1   
     8     4    13 1   
     9     4    28 1   
    10     5     6 1   
    11     6     7 1   
    12     6     8 1   
    13     6     9 1   
    14     7    29 1   
    15     7    30 1   
    16     7    31 1   
    17     8    32 1   
    18     8    33 1   
    19     8    34 1   
    20     9    10 1   
    21     9    13 1   
    22     9    35 1   
    23    10    11 1   
    24    10    12 1   
    25    13    36 1   
    26    14    15 1   
    27    14    37 1   
    28    15    16 2   
    29    15    17 1   
    30    17    18 1   
    31    17    19 1   
    32    17    38 1   
    33    18    39 1   
    34    18    40 1   
    35    19    20 ar  
    36    19    24 ar  
    37    20    21 ar  
    38    20    41 1   
    39    21    22 ar  
    40    21    42 1   
    41    22    23 ar  
    42    22    25 1   
    43    23    24 ar  
    44    23    43 1   
    45    24    44 1   
    46    25    45 1   
@<TRIPOS>SUBSTRUCTURE
     1 AXL         1 TEMP              0 ****  ****    0 ROOT
