@<TRIPOS>MOLECULE
AXM
   34    36     1     0     0
SMALL
No Charge or Current Charge


@<TRIPOS>ATOM
      1 O28          2.7870    -0.3680     1.5220 o          1 AXM      -0.573100
      2 C27          2.5180     0.3320     0.5540 c          1 AXM       0.606100
      3 N29          3.3120     0.3560    -0.5880 ns         1 AXM      -0.394400
      4 O30          4.6230    -0.2590    -0.6020 oh         1 AXM      -0.424100
      5 C26          1.3120     1.2860     0.5270 c3         1 AXM      -0.152400
      6 C5          -0.0800     0.6090     0.2760 c6         1 AXM      -0.035000
      7 C4          -0.4720    -0.3610     1.4430 c6         1 AXM      -0.065733
      8 C3          -1.8720    -0.9910     1.1870 c6         1 AXM      -0.058367
      9 C9          -1.1790     1.7200     0.1770 c6         1 AXM      -0.065733
     10 C1          -2.5790     1.0940    -0.0810 c6         1 AXM      -0.058367
     11 C8          -2.5480     0.2950    -1.4140 c6         1 AXM      -0.068733
     12 C2          -2.9380     0.1360     1.0910 c6         1 AXM      -0.068733
     13 C6          -0.0810    -0.2020    -1.0640 c6         1 AXM      -0.065733
     14 C7          -1.4810    -0.8330    -1.3220 c6         1 AXM      -0.058367
     15 C10         -1.8410    -1.7890    -0.1490 c6         1 AXM      -0.068733
     16 H1           3.1410     1.0660    -1.2990 hn         1 AXM       0.333500
     17 H2           4.6130    -0.8110    -1.4200 ho         1 AXM       0.442000
     18 H3           1.2810     1.8100     1.4900 hc         1 AXM       0.062200
     19 H4           1.4750     2.0250    -0.2670 hc         1 AXM       0.062200
     20 H5           0.2690    -1.1660     1.5440 hc         1 AXM       0.043033
     21 H6          -0.4740     0.1770     2.4010 hc         1 AXM       0.043033
     22 H7          -2.1270    -1.6680     2.0130 hc         1 AXM       0.050367
     23 H8          -1.2030     2.3130     1.1020 hc         1 AXM       0.043033
     24 H9          -0.9360     2.4250    -0.6310 hc         1 AXM       0.043033
     25 H10         -3.3320     1.8910    -0.1470 hc         1 AXM       0.050367
     26 H11         -3.5380    -0.1350    -1.6220 hc         1 AXM       0.040533
     27 H12         -2.3190     0.9660    -2.2540 hc         1 AXM       0.040533
     28 H13         -3.9360    -0.2970     0.9350 hc         1 AXM       0.040533
     29 H14         -2.9870     0.6940     2.0360 hc         1 AXM       0.040533
     30 H15          0.1930     0.4510    -1.9040 hc         1 AXM       0.043033
     31 H16          0.6750    -0.9990    -1.0340 hc         1 AXM       0.043033
     32 H17         -1.4610    -1.3980    -2.2640 hc         1 AXM       0.050367
     33 H18         -1.1080    -2.6060    -0.0860 hc         1 AXM       0.040533
     34 H19         -2.8160    -2.2620    -0.3300 hc         1 AXM       0.040533
@<TRIPOS>BOND
     1     1     2 2   
     2     2     3 1   
     3     2     5 1   
     4     3     4 1   
     5     3    16 1   
     6     4    17 1   
     7     5     6 1   
     8     5    18 1   
     9     5    19 1   
    10     6     7 1   
    11     6     9 1   
    12     6    13 1   
    13     7     8 1   
    14     7    20 1   
    15     7    21 1   
    16     8    12 1   
    17     8    15 1   
    18     8    22 1   
    19     9    10 1   
    20     9    23 1   
    21     9    24 1   
    22    10    11 1   
    23    10    12 1   
    24    10    25 1   
    25    11    14 1   
    26    11    26 1   
    27    11    27 1   
    28    12    28 1   
    29    12    29 1   
    30    13    14 1   
    31    13    30 1   
    32    13    31 1   
    33    14    15 1   
    34    14    32 1   
    35    15    33 1   
    36    15    34 1   
@<TRIPOS>SUBSTRUCTURE
     1 AXM         1 TEMP              0 ****  ****    0 ROOT
