@<TRIPOS>MOLECULE
AXM
   34    36     1     0     0
SMALL
bcc


@<TRIPOS>ATOM
      1 O28          2.7650    -0.2670     1.5310 o          1 AXM      -0.573100
      2 C27          2.4760     0.4100     0.5580 c          1 AXM       0.673100
      3 N29          3.1920     0.3900    -0.5840 ns         1 AXM      -0.461400
      4 O30          4.3720    -0.2860    -0.6470 oh         1 AXM      -0.385100
      5 C26          1.2720     1.3200     0.4950 c3         1 AXM      -0.152400
      6 C5          -0.0710     0.6090     0.2580 c6         1 AXM      -0.035000
      7 C4          -0.4280    -0.3610     1.3930 c6         1 AXM      -0.065733
      8 C3          -1.7990    -0.9950     1.1430 c6         1 AXM      -0.058367
      9 C9          -1.1630     1.6880     0.1880 c6         1 AXM      -0.065733
     10 C1          -2.5360     1.0620    -0.0590 c6         1 AXM      -0.058367
     11 C8          -2.5070     0.3000    -1.3860 c6         1 AXM      -0.068733
     12 C2          -2.8680     0.0970     1.0790 c6         1 AXM      -0.068733
     13 C6          -0.0690    -0.1640    -1.0690 c6         1 AXM      -0.065733
     14 C7          -1.4410    -0.7950    -1.3220 c6         1 AXM      -0.058367
     15 C10         -1.7720    -1.7610    -0.1820 c6         1 AXM      -0.068733
     16 H1           3.0370     1.0470    -1.3340 hn         1 AXM       0.333500
     17 H2           4.1680    -1.1530    -1.0180 ho         1 AXM       0.403000
     18 H3           1.2280     1.8640     1.4430 hc         1 AXM       0.062200
     19 H4           1.4070     2.0720    -0.2900 hc         1 AXM       0.062200
     20 H5           0.3280    -1.1470     1.4800 hc         1 AXM       0.043033
     21 H6          -0.4310     0.1760     2.3480 hc         1 AXM       0.043033
     22 H7          -2.0250    -1.6870     1.9600 hc         1 AXM       0.050367
     23 H8          -1.1710     2.2620     1.1220 hc         1 AXM       0.043033
     24 H9          -0.9320     2.3980    -0.6140 hc         1 AXM       0.043033
     25 H10         -3.2900     1.8540    -0.1050 hc         1 AXM       0.050367
     26 H11         -3.4890    -0.1380    -1.5930 hc         1 AXM       0.040533
     27 H12         -2.2920     0.9910    -2.2090 hc         1 AXM       0.040533
     28 H13         -3.8560    -0.3480     0.9240 hc         1 AXM       0.040533
     29 H14         -2.9100     0.6380     2.0300 hc         1 AXM       0.040533
     30 H15          0.1870     0.5130    -1.8930 hc         1 AXM       0.043033
     31 H16          0.6940    -0.9490    -1.0550 hc         1 AXM       0.043033
     32 H17         -1.4160    -1.3390    -2.2710 hc         1 AXM       0.050367
     33 H18         -1.0280    -2.5630    -0.1390 hc         1 AXM       0.040533
     34 H19         -2.7410    -2.2380    -0.3620 hc         1 AXM       0.040533
@<TRIPOS>BOND
     1     1     2 2   
     2     2     3 1   
     3     2     5 1   
     4     3     4 1   
     5     3    16 1   
     6     4    17 1   
     7     5     6 1   
     8     5    18 1   
     9     5    19 1   
    10     6     7 1   
    11     6     9 1   
    12     6    13 1   
    13     7     8 1   
    14     7    20 1   
    15     7    21 1   
    16     8    12 1   
    17     8    15 1   
    18     8    22 1   
    19     9    10 1   
    20     9    23 1   
    21     9    24 1   
    22    10    11 1   
    23    10    12 1   
    24    10    25 1   
    25    11    14 1   
    26    11    26 1   
    27    11    27 1   
    28    12    28 1   
    29    12    29 1   
    30    13    14 1   
    31    13    30 1   
    32    13    31 1   
    33    14    15 1   
    34    14    32 1   
    35    15    33 1   
    36    15    34 1   
@<TRIPOS>SUBSTRUCTURE
     1 AXM         1 TEMP              0 ****  ****    0 ROOT
