@<TRIPOS>MOLECULE
AXN
   63    66     1     0     0
SMALL
bcc


@<TRIPOS>ATOM
      1 CAA          5.8730     1.7700     1.0670 c3         1 AXN      -0.090100
      2 CAB          6.4430     0.8930     3.3520 c3         1 AXN      -0.090100
      3 CAC         -2.9220     2.6450    -2.9860 c3         1 AXN       0.069300
      4 CAD         -3.9640     1.3460     2.4660 c3         1 AXN       0.074300
      5 CAI          3.5390    -1.2550     0.5440 ca         1 AXN      -0.153000
      6 CAJ          2.5460     0.9250     0.5520 ca         1 AXN      -0.153000
      7 CAK          2.8290    -1.5880    -0.5970 ca         1 AXN      -0.026500
      8 CAL          1.8320     0.6160    -0.5950 ca         1 AXN      -0.026500
      9 CAM         -1.8360     0.3500    -1.7930 ca         1 AXN      -0.140000
     10 CAN         -2.3170    -0.2690     0.8540 ca         1 AXN      -0.156000
     11 CAO          0.3700    -3.4890     2.1540 c5         1 AXN      -0.082400
     12 CAP         -0.8770    -4.3160     1.7770 c5         1 AXN      -0.082400
     13 CAQ         -0.0050    -2.0590     1.7910 c5         1 AXN       0.169800
     14 CAR         -1.7760    -3.3470     0.9960 c5         1 AXN       0.169800
     15 CAS          4.2130     0.3480     2.3540 c3         1 AXN      -0.042100
     16 CAU          3.4100     0.0020     1.1350 ca         1 AXN      -0.017300
     17 CAV         -1.2440    -0.7700    -1.2280 ca         1 AXN       0.121600
     18 CAW          1.9820    -0.6430    -1.1620 ca         1 AXN      -0.313500
     19 CAX         -1.4840    -1.0900     0.1080 ca         1 AXN       0.068600
     20 CAY         -4.0110     3.1580    -0.8860 c          1 AXN       0.630500
     21 CAZ         -4.2820     2.8170     0.5710 c          1 AXN       0.629500
     22 CBA         -2.6400     1.1880    -1.0320 ca         1 AXN       0.050600
     23 CBB         -2.8900     0.8740     0.3110 ca         1 AXN       0.033600
     24 CBC          5.6960     0.6200     2.0520 c3         1 AXN      -0.055700
     25 NAT         -0.4350    -1.6360    -1.9940 nu         1 AXN      -0.630500
     26 NBD         -0.8770    -2.2510     0.6370 nh         1 AXN      -0.649000
     27 NBE         -3.2070     2.3290    -1.5950 n          1 AXN      -0.356000
     28 NBF         -3.7110     1.6990     1.0780 n          1 AXN      -0.357000
     29 OAE         -4.5260     4.1570    -1.3420 o          1 AXN      -0.558500
     30 OAF         -4.9970     3.5630     1.2060 o          1 AXN      -0.561500
     31 OAG          0.7550     0.1340    -3.3400 o          1 AXN      -0.601800
     32 OAH          1.6370    -2.2190    -3.2330 o          1 AXN      -0.601800
     33 SBG          1.0270    -1.0740    -2.5820 sy         1 AXN       1.272200
     34 H1           5.4200     1.5500     0.0990 hc         1 AXN       0.036033
     35 H2           5.4180     2.6880     1.4460 hc         1 AXN       0.036033
     36 H3           6.9310     1.9720     0.8930 hc         1 AXN       0.036033
     37 H4           6.0620     1.7940     3.8400 hc         1 AXN       0.036033
     38 H5           6.3380     0.0650     4.0530 hc         1 AXN       0.036033
     39 H6           7.5090     1.0420     3.1700 hc         1 AXN       0.036033
     40 H7          -3.2970     1.8590    -3.6400 h1         1 AXN       0.062033
     41 H8          -3.4080     3.5760    -3.2490 h1         1 AXN       0.062033
     42 H9          -1.8490     2.7540    -3.1370 h1         1 AXN       0.062033
     43 H10         -3.0340     1.3340     3.0330 h1         1 AXN       0.056033
     44 H11         -4.6300     2.0770     2.9060 h1         1 AXN       0.056033
     45 H12         -4.4330     0.3650     2.5280 h1         1 AXN       0.056033
     46 H13          4.2010    -1.9910     0.9840 ha         1 AXN       0.137000
     47 H14          2.4300     1.9070     0.9950 ha         1 AXN       0.137000
     48 H15          2.9420    -2.5710    -1.0330 ha         1 AXN       0.154500
     49 H16          1.1770     1.3540    -1.0370 ha         1 AXN       0.154500
     50 H17         -1.6720     0.5530    -2.8390 ha         1 AXN       0.179000
     51 H18         -2.5020    -0.5340     1.8850 ha         1 AXN       0.144000
     52 H19          0.6390    -3.5840     3.2060 hc         1 AXN       0.051450
     53 H20          1.2320    -3.8070     1.5660 hc         1 AXN       0.051450
     54 H21         -0.6030    -5.1800     1.1720 hc         1 AXN       0.051450
     55 H22         -1.3970    -4.6920     2.6570 hc         1 AXN       0.051450
     56 H23         -0.5300    -1.5720     2.6260 h1         1 AXN       0.044950
     57 H24          0.8530    -1.4390     1.5270 h1         1 AXN       0.044950
     58 H25         -2.2140    -3.7910     0.1010 h1         1 AXN       0.044950
     59 H26         -2.6060    -3.0010     1.6280 h1         1 AXN       0.044950
     60 H27          3.7830     1.2280     2.8420 hc         1 AXN       0.050700
     61 H28          4.1470    -0.4740     3.0720 hc         1 AXN       0.050700
     62 H29          6.1170    -0.2850     1.6000 hc         1 AXN       0.048700
     63 H30         -0.2700    -2.4940    -1.4620 hn         1 AXN       0.446800
@<TRIPOS>BOND
     1     1    24 1   
     2     1    34 1   
     3     1    35 1   
     4     1    36 1   
     5     2    24 1   
     6     2    37 1   
     7     2    38 1   
     8     2    39 1   
     9     3    27 1   
    10     3    40 1   
    11     3    41 1   
    12     3    42 1   
    13     4    28 1   
    14     4    43 1   
    15     4    44 1   
    16     4    45 1   
    17     5     7 ar  
    18     5    16 ar  
    19     5    46 1   
    20     6     8 ar  
    21     6    16 ar  
    22     6    47 1   
    23     7    18 ar  
    24     7    48 1   
    25     8    18 ar  
    26     8    49 1   
    27     9    17 ar  
    28     9    22 ar  
    29     9    50 1   
    30    10    19 ar  
    31    10    23 ar  
    32    10    51 1   
    33    11    12 1   
    34    11    13 1   
    35    11    52 1   
    36    11    53 1   
    37    12    14 1   
    38    12    54 1   
    39    12    55 1   
    40    13    26 1   
    41    13    56 1   
    42    13    57 1   
    43    14    26 1   
    44    14    58 1   
    45    14    59 1   
    46    15    16 1   
    47    15    24 1   
    48    15    60 1   
    49    15    61 1   
    50    17    19 ar  
    51    17    25 1   
    52    18    33 1   
    53    19    26 1   
    54    20    21 1   
    55    20    27 1   
    56    20    29 2   
    57    21    28 1   
    58    21    30 2   
    59    22    23 ar  
    60    22    27 1   
    61    23    28 1   
    62    24    62 1   
    63    25    33 1   
    64    25    63 1   
    65    31    33 2   
    66    32    33 2   
@<TRIPOS>SUBSTRUCTURE
     1 AXN         1 TEMP              0 ****  ****    0 ROOT
