@<TRIPOS>MOLECULE
AXN
   63    66     1     0     0
SMALL
No Charge or Current Charge


@<TRIPOS>ATOM
      1 CAA          6.0090     1.7040     1.0820 c3         1 AXN      -0.090100
      2 CAB          6.4760     0.8530     3.4400 c3         1 AXN      -0.090100
      3 CAC         -3.0100     2.7910    -3.0140 c3         1 AXN       0.069300
      4 CAD         -3.8060     1.6380     2.6420 c3         1 AXN       0.074300
      5 CAI          3.5200    -1.2780     0.6100 ca         1 AXN      -0.135000
      6 CAJ          2.5680     0.9540     0.4890 ca         1 AXN      -0.135000
      7 CAK          2.7960    -1.6530    -0.5340 ca         1 AXN      -0.008500
      8 CAL          1.8440     0.5880    -0.6580 ca         1 AXN      -0.008500
      9 CAM         -1.9080     0.3770    -1.7880 ca         1 AXN      -0.122000
     10 CAN         -2.2940    -0.1780     0.9240 ca         1 AXN      -0.138000
     11 CAO          0.4390    -3.5730     2.0520 c5         1 AXN      -0.082400
     12 CAP         -0.9300    -4.2700     1.8450 c5         1 AXN      -0.082400
     13 CAQ          0.0350    -2.0890     1.8860 c5         1 AXN       0.169800
     14 CAR         -1.4550    -3.5550     0.5730 c5         1 AXN       0.169800
     15 CAS          4.1920     0.4230     2.3770 c3         1 AXN      -0.042100
     16 CAU          3.4100     0.0260     1.1290 ca         1 AXN      -0.017300
     17 CAV         -1.2970    -0.7460    -1.2150 ca         1 AXN       0.260000
     18 CAW          1.9570    -0.7180    -1.1740 ca         1 AXN      -0.313500
     19 CAX         -1.4990    -1.0350     0.1530 ca         1 AXN       0.207000
     20 CAY         -4.4160     3.0630    -0.9720 c          1 AXN       0.488000
     21 CAZ         -4.6330     2.7490     0.5680 c          1 AXN       0.487000
     22 CBA         -2.6620     1.2820    -1.0040 ca         1 AXN       0.050600
     23 CBB         -2.8570     1.0000     0.3780 ca         1 AXN       0.033600
     24 CBC          5.7120     0.5960     2.1210 c3         1 AXN      -0.055700
     25 NAT         -0.5030    -1.6000    -1.9750 nu         1 AXN      -0.824100
     26 NBD         -0.9140    -2.1820     0.7510 nh         1 AXN      -0.787400
     27 NBE         -3.3920     2.3540    -1.6440 n          1 AXN      -0.289000
     28 NBF         -3.7870     1.7820     1.1620 n          1 AXN      -0.290000
     29 OAE         -5.1000     3.9100    -1.5450 o          1 AXN      -0.483000
     30 OAF         -5.4900     3.3470     1.2190 o          1 AXN      -0.486000
     31 OAG          0.7290    -0.0370    -3.4590 o          1 AXN      -0.531000
     32 OAH          1.4820    -2.4730    -3.1410 o          1 AXN      -0.531000
     33 SBG          0.9920    -1.2000    -2.6080 sy         1 AXN       1.130600
     34 H1           5.5470     1.4700     0.1160 hc         1 AXN       0.036033
     35 H2           5.6230     2.6720     1.4230 hc         1 AXN       0.036033
     36 H3           7.0890     1.8020     0.9200 hc         1 AXN       0.036033
     37 H4           6.1470     1.7900     3.9070 hc         1 AXN       0.036033
     38 H5           6.3080     0.0360     4.1520 hc         1 AXN       0.036033
     39 H6           7.5550     0.9230     3.2560 hc         1 AXN       0.036033
     40 H7          -3.4640     2.1220    -3.7560 h1         1 AXN       0.062033
     41 H8          -3.3390     3.8180    -3.2150 h1         1 AXN       0.062033
     42 H9          -1.9190     2.7690    -3.1250 h1         1 AXN       0.062033
     43 H10         -2.7830     1.5140     3.0200 h1         1 AXN       0.056033
     44 H11         -4.2310     2.5250     3.1270 h1         1 AXN       0.056033
     45 H12         -4.4040     0.7610     2.9200 h1         1 AXN       0.056033
     46 H13          4.1620    -2.0060     1.0990 ha         1 AXN       0.119000
     47 H14          2.4720     1.9640     0.8800 ha         1 AXN       0.119000
     48 H15          2.8870    -2.6710    -0.9120 ha         1 AXN       0.136500
     49 H16          1.1920     1.3180    -1.1350 ha         1 AXN       0.136500
     50 H17         -1.7890     0.5240    -2.8550 ha         1 AXN       0.161000
     51 H18         -2.4730    -0.4580     1.9570 ha         1 AXN       0.126000
     52 H19          0.8800    -3.7780     3.0340 hc         1 AXN       0.051450
     53 H20          1.1670    -3.8770     1.2900 hc         1 AXN       0.051450
     54 H21         -0.8410    -5.3530     1.7090 hc         1 AXN       0.051450
     55 H22         -1.5960    -4.0980     2.6990 hc         1 AXN       0.051450
     56 H23         -0.4600    -1.7060     2.7890 h1         1 AXN       0.044950
     57 H24          0.9000    -1.4510     1.6610 h1         1 AXN       0.044950
     58 H25         -1.0580    -4.0220    -0.3390 h1         1 AXN       0.044950
     59 H26         -2.5520    -3.5710     0.5250 h1         1 AXN       0.044950
     60 H27          3.7900     1.3520     2.8000 hc         1 AXN       0.050700
     61 H28          4.0460    -0.3440     3.1480 hc         1 AXN       0.050700
     62 H29          6.0910    -0.3480     1.7100 hc         1 AXN       0.048700
     63 H30         -0.2530    -2.3950    -1.3990 hn         1 AXN       0.502000
@<TRIPOS>BOND
     1     1    24 1   
     2     1    34 1   
     3     1    35 1   
     4     1    36 1   
     5     2    24 1   
     6     2    37 1   
     7     2    38 1   
     8     2    39 1   
     9     3    27 1   
    10     3    40 1   
    11     3    41 1   
    12     3    42 1   
    13     4    28 1   
    14     4    43 1   
    15     4    44 1   
    16     4    45 1   
    17     5     7 ar  
    18     5    16 ar  
    19     5    46 1   
    20     6     8 ar  
    21     6    16 ar  
    22     6    47 1   
    23     7    18 ar  
    24     7    48 1   
    25     8    18 ar  
    26     8    49 1   
    27     9    17 ar  
    28     9    22 ar  
    29     9    50 1   
    30    10    19 ar  
    31    10    23 ar  
    32    10    51 1   
    33    11    12 1   
    34    11    13 1   
    35    11    52 1   
    36    11    53 1   
    37    12    14 1   
    38    12    54 1   
    39    12    55 1   
    40    13    26 1   
    41    13    56 1   
    42    13    57 1   
    43    14    26 1   
    44    14    58 1   
    45    14    59 1   
    46    15    16 1   
    47    15    24 1   
    48    15    60 1   
    49    15    61 1   
    50    17    19 ar  
    51    17    25 1   
    52    18    33 1   
    53    19    26 1   
    54    20    21 1   
    55    20    27 1   
    56    20    29 2   
    57    21    28 1   
    58    21    30 2   
    59    22    23 ar  
    60    22    27 1   
    61    23    28 1   
    62    24    62 1   
    63    25    33 1   
    64    25    63 1   
    65    31    33 2   
    66    32    33 2   
@<TRIPOS>SUBSTRUCTURE
     1 AXN         1 TEMP              0 ****  ****    0 ROOT
