@<TRIPOS>MOLECULE
AXO
    9     8     1     0     0
SMALL
No Charge or Current Charge


@<TRIPOS>ATOM
      1 C1           0.5400    -0.3480    -0.0010 c2         1 AXO       0.372200
      2 C2           1.9660     0.1460     0.0180 c3         1 AXO      -0.135400
      3 N           -0.4690     0.4620    -0.0310 n2         1 AXO      -0.340700
      4 O1          -1.7150    -0.1900    -0.0450 oh         1 AXO      -0.521000
      5 H1           0.3960    -1.4270     0.0110 h4         1 AXO       0.001800
      6 H3           2.1860     0.7440    -0.8740 hc         1 AXO       0.052033
      7 H4           2.1530     0.7690     0.9000 hc         1 AXO       0.052033
      8 H5           2.6680    -0.6940     0.0420 hc         1 AXO       0.052033
      9 H7          -2.3890     0.5340    -0.0670 ho         1 AXO       0.467000
@<TRIPOS>BOND
     1     1     2 1   
     2     1     3 2   
     3     1     5 1   
     4     2     6 1   
     5     2     7 1   
     6     2     8 1   
     7     3     4 1   
     8     4     9 1   
@<TRIPOS>SUBSTRUCTURE
     1 AXO         1 TEMP              0 ****  ****    0 ROOT
