@<TRIPOS>MOLECULE
AXO
    9     8     1     0     0
SMALL
abcg2


@<TRIPOS>ATOM
      1 C1           0.5280    -0.3600    -0.0170 c2         1 AXO       0.372200
      2 C2           1.9340     0.1510     0.0220 c3         1 AXO      -0.135400
      3 N           -0.4450     0.4480    -0.0010 n2         1 AXO      -0.340700
      4 O1          -1.6610    -0.1850    -0.0520 oh         1 AXO      -0.521000
      5 H1           0.3670    -1.4380    -0.0620 h4         1 AXO       0.001800
      6 H3           2.1810     0.7090    -0.8830 hc         1 AXO       0.052033
      7 H4           2.0990     0.8150     0.8710 hc         1 AXO       0.052033
      8 H5           2.6330    -0.6770     0.1010 hc         1 AXO       0.052033
      9 H7          -2.3010     0.5330    -0.0260 ho         1 AXO       0.467000
@<TRIPOS>BOND
     1     1     2 1   
     2     1     3 2   
     3     1     5 1   
     4     2     6 1   
     5     2     7 1   
     6     2     8 1   
     7     3     4 1   
     8     4     9 1   
@<TRIPOS>SUBSTRUCTURE
     1 AXO         1 TEMP              0 ****  ****    0 ROOT
