@<TRIPOS>MOLECULE
AXP
   39    39     1     0     0
SMALL
bcc


@<TRIPOS>ATOM
      1 P1          -0.1070     0.1350    -3.2760 p5         1 AXP       1.131700
      2 C2          -0.3350    -0.3130    -1.4740 c6         1 AXP       0.019900
      3 C3           0.6600    -1.4070    -1.0900 c6         1 AXP      -0.122400
      4 C4           0.9330    -1.5440     0.4010 c6         1 AXP       0.123100
      5 C5           1.1220    -0.1460     0.9990 c6         1 AXP       0.089700
      6 C6          -0.0640     0.7700     0.6650 c6         1 AXP       0.111100
      7 C7          -1.4620     0.4570     1.2410 c3         1 AXP       0.093100
      8 C8          -1.5520     0.3370     2.7760 c3         1 AXP       0.124100
      9 C9          -2.9890     0.0250     3.1840 c3         1 AXP       0.099400
     10 C11          4.6360     0.9300     0.0600 c3         1 AXP      -0.177100
     11 N5           2.3000     0.4540     0.4010 ns         1 AXP      -0.544900
     12 O1P         -0.3340    -1.1930    -4.0110 o          1 AXP      -0.921500
     13 O2P          1.3410     0.6450    -3.3400 o          1 AXP      -0.921500
     14 O3P         -1.1610     1.2020    -3.5850 o          1 AXP      -0.921500
     15 O4          -0.1160    -2.1810     1.1140 oh         1 AXP      -0.650800
     16 O6          -0.1290     0.8950    -0.7360 os         1 AXP      -0.346600
     17 O7          -2.3570     1.4560     0.7930 oh         1 AXP      -0.572800
     18 O8          -0.6760    -0.6200     3.3220 oh         1 AXP      -0.608800
     19 O9          -3.0640     0.0030     4.5920 oh         1 AXP      -0.594800
     20 O10          3.7730    -0.1880     1.9900 o          1 AXP      -0.674100
     21 H2          -1.3590    -0.6740    -1.2990 h1         1 AXP       0.015700
     22 H31          1.6150    -1.1920    -1.5760 hc         1 AXP       0.063700
     23 H32          0.3230    -2.3590    -1.5080 hc         1 AXP       0.063700
     24 H4           1.8620    -2.1130     0.5440 h1         1 AXP       0.017700
     25 H5           1.2840    -0.2010     2.0730 h1         1 AXP       0.072700
     26 H6           0.2050     1.7690     1.0390 h1         1 AXP       0.034700
     27 H7          -1.8430    -0.4690     0.8050 h1         1 AXP       0.095700
     28 H8          -1.2800     1.3010     3.2190 h1         1 AXP       0.049700
     29 H91         -3.6630     0.7760     2.7620 h1         1 AXP       0.024700
     30 H92         -3.2730    -0.9450     2.7480 h1         1 AXP       0.024700
     31 H111         5.2950     1.5420     0.6740 hc         1 AXP       0.052367
     32 H112         5.2360     0.1170    -0.3520 hc         1 AXP       0.052367
     33 H113         4.2690     1.5320    -0.7690 hc         1 AXP       0.052367
     34 HN5          2.1880     0.8350    -0.5290 hn         1 AXP       0.377500
     35 HO4         -0.3960    -2.9690     0.6370 ho         1 AXP       0.406000
     36 HO7         -2.0510     2.3110     1.1180 ho         1 AXP       0.385000
     37 HO8         -0.6120    -1.3660     2.7060 ho         1 AXP       0.436000
     38 HO9         -3.9850    -0.1260     4.8330 ho         1 AXP       0.375000
     39 C10          3.5370     0.3470     0.9150 c          1 AXP       0.663100
@<TRIPOS>BOND
     1     1     2 1   
     2     1    12 1   
     3     1    13 1   
     4     1    14 1   
     5     2     3 1   
     6     2    16 1   
     7     2    21 1   
     8     3     4 1   
     9     3    22 1   
    10     3    23 1   
    11     4     5 1   
    12     4    15 1   
    13     4    24 1   
    14     5     6 1   
    15     5    11 1   
    16     5    25 1   
    17     6     7 1   
    18     6    16 1   
    19     6    26 1   
    20     7     8 1   
    21     7    17 1   
    22     7    27 1   
    23     8     9 1   
    24     8    18 1   
    25     8    28 1   
    26     9    19 1   
    27     9    29 1   
    28     9    30 1   
    29    10    31 1   
    30    10    32 1   
    31    10    33 1   
    32    10    39 1   
    33    11    34 1   
    34    11    39 1   
    35    15    35 1   
    36    17    36 1   
    37    18    37 1   
    38    19    38 1   
    39    20    39 2   
@<TRIPOS>SUBSTRUCTURE
     1 AXP         1 TEMP              0 ****  ****    0 ROOT
