@<TRIPOS>MOLECULE
AXP
   39    39     1     0     0
SMALL
No Charge or Current Charge


@<TRIPOS>ATOM
      1 P1          -0.5240     0.0040    -3.3730 p5         1 AXP       1.289500
      2 C2          -0.3280    -0.2480    -1.5020 c6         1 AXP      -0.114700
      3 C3           0.7630    -1.3170    -1.1680 c6         1 AXP      -0.122400
      4 C4           1.0020    -1.5010     0.3580 c6         1 AXP       0.146300
      5 C5           1.1950    -0.1200     1.0550 c6         1 AXP       0.089700
      6 C6           0.0020     0.8280     0.7050 c6         1 AXP       0.134300
      7 C7          -1.4440     0.4780     1.2450 c3         1 AXP       0.116300
      8 C8          -1.5790     0.2890     2.7950 c3         1 AXP       0.147300
      9 C9          -3.0660     0.1430     3.2630 c3         1 AXP       0.122600
     10 C11          4.8400     1.0010     0.4200 c3         1 AXP      -0.177100
     11 N5           2.4560     0.5080     0.6090 ns         1 AXP      -0.477900
     12 O1P         -0.8720    -1.2950    -4.0230 o          1 AXP      -0.921500
     13 O2P          0.7490     0.5200    -3.9630 o          1 AXP      -0.921500
     14 O3P         -1.6200     0.9850    -3.6370 o          1 AXP      -0.921500
     15 O4          -0.0670    -2.2460     0.9620 oh         1 AXP      -0.713000
     16 O6          -0.0670     0.9800    -0.7410 os         1 AXP      -0.393000
     17 O7          -2.3470     1.5030     0.7790 oh         1 AXP      -0.695000
     18 O8          -0.8340    -0.8750     3.2200 oh         1 AXP      -0.671000
     19 O9          -3.1740     0.0730     4.7000 oh         1 AXP      -0.717000
     20 O10          3.9010    -0.5430     2.0200 o          1 AXP      -0.674100
     21 H2          -1.3010    -0.6470    -1.1900 h1         1 AXP       0.015700
     22 H31          1.7070    -1.0200    -1.6430 hc         1 AXP       0.063700
     23 H32          0.4940    -2.2790    -1.6230 hc         1 AXP       0.063700
     24 H4           1.9310    -2.0760     0.4830 h1         1 AXP       0.017700
     25 H5           1.2710    -0.2530     2.1420 h1         1 AXP       0.072700
     26 H6           0.2500     1.8150     1.1230 h1         1 AXP       0.034700
     27 H7          -1.7560    -0.4750     0.8040 h1         1 AXP       0.095700
     28 H8          -1.1650     1.1860     3.2760 h1         1 AXP       0.049700
     29 H91         -3.6460     1.0020     2.9020 h1         1 AXP       0.024700
     30 H92         -3.4980    -0.7570     2.8040 h1         1 AXP       0.024700
     31 H111         5.8240     0.7650     0.8420 hc         1 AXP       0.052367
     32 H112         4.8050     0.8030    -0.6570 hc         1 AXP       0.052367
     33 H113         4.6290     2.0760     0.4660 hc         1 AXP       0.052367
     34 HN5          2.4060     1.1610    -0.1650 hn         1 AXP       0.377500
     35 HO4         -0.0970    -3.1130     0.4970 ho         1 AXP       0.445000
     36 HO7         -2.0450     1.7160    -0.1350 ho         1 AXP       0.484000
     37 HO8         -0.6110    -1.4000     2.4020 ho         1 AXP       0.475000
     38 HO9         -4.1240    -0.0800     4.9100 ho         1 AXP       0.474000
     39 C10          3.7080     0.2420     1.1020 c          1 AXP       0.596100
@<TRIPOS>BOND
     1     1     2 1   
     2     1    12 1   
     3     1    13 1   
     4     1    14 1   
     5     2     3 1   
     6     2    16 1   
     7     2    21 1   
     8     3     4 1   
     9     3    22 1   
    10     3    23 1   
    11     4     5 1   
    12     4    15 1   
    13     4    24 1   
    14     5     6 1   
    15     5    11 1   
    16     5    25 1   
    17     6     7 1   
    18     6    16 1   
    19     6    26 1   
    20     7     8 1   
    21     7    17 1   
    22     7    27 1   
    23     8     9 1   
    24     8    18 1   
    25     8    28 1   
    26     9    19 1   
    27     9    29 1   
    28     9    30 1   
    29    10    31 1   
    30    10    32 1   
    31    10    33 1   
    32    10    39 1   
    33    11    34 1   
    34    11    39 1   
    35    15    35 1   
    36    17    36 1   
    37    18    37 1   
    38    19    38 1   
    39    20    39 2   
@<TRIPOS>SUBSTRUCTURE
     1 AXP         1 TEMP              0 ****  ****    0 ROOT
