@<TRIPOS>MOLECULE
AXQ
  100   100     1     0     0
SMALL
No Charge or Current Charge


@<TRIPOS>ATOM
      1 S1           6.4220   -42.2160    52.3200 ss         1 AXQ      -0.450000
      2 C2           8.2310   -42.4670    51.9790 c3         1 AXQ       0.050600
      3 C5           9.1220   -41.6640    52.9600 c3         1 AXQ       0.094700
      4 N7           8.7510   -40.2390    52.9170 ns         1 AXQ      -0.503900
      5 C9           8.7250   -39.3790    53.9960 c          1 AXQ       0.584100
      6 C10          8.1280   -37.9630    53.7150 c3         1 AXQ       0.029700
      7 N12          7.4910   -37.8820    52.3750 ns         1 AXQ      -0.509900
      8 C14          8.0950   -37.3760    51.2390 c          1 AXQ       0.574100
      9 C15          7.2040   -37.3770    49.9670 c3         1 AXQ       0.063700
     10 C17          6.9630   -38.8290    49.4790 c3         1 AXQ       0.044600
     11 S20          5.6910   -38.9180    48.1310 ss         1 AXQ      -0.414000
     12 C21          5.6810   -40.7390    47.8080 c3         1 AXQ       0.098800
     13 C24          5.3250   -41.4640    49.0880 c2         1 AXQ      -0.203200
     14 C26          6.0200   -42.4830    49.6220 c2         1 AXQ      -0.227200
     15 C28          5.6860   -43.1800    50.9230 c3         1 AXQ       0.111800
     16 N31          7.8130   -36.5440    48.9050 ns         1 AXQ      -0.476900
     17 C33          7.1400   -35.6570    48.1150 c          1 AXQ       0.650100
     18 O34          5.9560   -35.3850    48.2260 o          1 AXQ      -0.550000
     19 O35          8.0400   -35.1000    47.2480 os         1 AXQ      -0.477100
     20 C36          7.6640   -34.1040    46.2680 c3         1 AXQ       0.220000
     21 C37          8.9790   -33.7910    45.5190 c3         1 AXQ      -0.108767
     22 C41          6.6260   -34.7050    45.2860 c3         1 AXQ      -0.108767
     23 C45          7.1520   -32.8300    46.9890 c3         1 AXQ      -0.108767
     24 O49          9.2550   -36.9840    51.2510 o          1 AXQ      -0.592100
     25 C50          7.1120   -37.5290    54.7930 c3         1 AXQ      -0.095100
     26 O54          9.1070   -39.7260    55.1050 o          1 AXQ      -0.594100
     27 C55         10.6370   -41.9090    52.6730 c3         1 AXQ       0.153300
     28 O57         10.9970   -41.3360    51.4050 oh         1 AXQ      -0.673000
     29 C59         11.5890   -41.3460    53.7630 c3         1 AXQ      -0.099400
     30 C62         13.0880   -41.7100    53.5590 c3         1 AXQ      -0.126700
     31 C64         13.9870   -41.1130    54.6680 c3         1 AXQ      -0.082100
     32 C68         13.2850   -43.2360    53.4450 c          1 AXQ       0.597100
     33 O69         13.0440   -44.0050    54.3660 o          1 AXQ      -0.617100
     34 N70         13.7380   -43.6750    52.2230 ns         1 AXQ      -0.487900
     35 C72         13.9150   -45.0920    51.8350 c3         1 AXQ       0.044700
     36 C74         12.5290   -45.7550    51.5390 c3         1 AXQ      -0.068700
     37 C76         11.8040   -45.1360    50.3170 c3         1 AXQ      -0.090100
     38 C80         12.6070   -47.2950    51.4170 c3         1 AXQ      -0.090100
     39 C84         14.9160   -45.1800    50.6420 c          1 AXQ       0.592100
     40 O85         15.1410   -44.2380    49.8910 o          1 AXQ      -0.605100
     41 N86         15.5670   -46.3900    50.5050 ns         1 AXQ      -0.502900
     42 C88         16.5830   -46.6900    49.4910 c3         1 AXQ       0.102000
     43 C91         18.0230   -46.5470    50.0310 c3         1 AXQ      -0.094400
     44 C94         18.4020   -45.1140    50.4730 c3         1 AXQ      -0.079400
     45 C97         19.8660   -44.9950    50.9370 c3         1 AXQ      -0.087100
     46 H21          8.4470   -42.1510    50.9510 h1         1 AXQ       0.070700
     47 H22          8.4640   -43.5370    52.0620 h1         1 AXQ       0.070700
     48 H5           8.9090   -42.0440    53.9680 h1         1 AXQ       0.099700
     49 HN7          8.3600   -39.8760    52.0580 hn         1 AXQ       0.318500
     50 H10          8.9770   -37.2680    53.7440 h1         1 AXQ       0.099700
     51 H12          6.5190   -38.1630    52.2910 hn         1 AXQ       0.324500
     52 H15          6.2400   -36.9400    50.2600 h1         1 AXQ       0.095700
     53 H171         6.6150   -39.4440    50.3190 h1         1 AXQ       0.074200
     54 H172         7.9060   -39.2570    49.1150 h1         1 AXQ       0.074200
     55 H211         6.6710   -41.0490    47.4480 h1         1 AXQ       0.078700
     56 H212         4.9430   -40.9650    47.0260 h1         1 AXQ       0.078700
     57 H24          4.4360   -41.0770    49.5890 ha         1 AXQ       0.189000
     58 H26          6.9100   -42.8700    49.1230 ha         1 AXQ       0.171000
     59 H281         4.5970   -43.2370    51.0570 h1         1 AXQ       0.079200
     60 H282         6.0870   -44.2020    50.9290 h1         1 AXQ       0.079200
     61 H31          8.8080   -36.6170    48.7340 hn         1 AXQ       0.332500
     62 H371         9.3790   -34.6930    45.0400 hc         1 AXQ       0.051589
     63 H372         9.7390   -33.4050    46.2090 hc         1 AXQ       0.051589
     64 H373         8.8140   -33.0370    44.7400 hc         1 AXQ       0.051589
     65 H411         6.9560   -35.6870    44.9240 hc         1 AXQ       0.051589
     66 H412         6.4990   -34.0500    44.4170 hc         1 AXQ       0.051589
     67 H413         5.6410   -34.8220    45.7510 hc         1 AXQ       0.051589
     68 H451         6.1540   -32.9740    47.4180 hc         1 AXQ       0.051589
     69 H452         7.0820   -31.9940    46.2830 hc         1 AXQ       0.051589
     70 H453         7.8360   -32.5360    47.7940 hc         1 AXQ       0.051589
     71 H501         6.7300   -36.5240    54.5800 hc         1 AXQ       0.055367
     72 H502         7.5820   -37.5090    55.7840 hc         1 AXQ       0.055367
     73 H503         6.2630   -38.2220    54.8300 hc         1 AXQ       0.055367
     74 H55         10.7780   -42.9990    52.6380 h1         1 AXQ       0.079700
     75 H57         10.8610   -40.3680    51.4850 ho         1 AXQ       0.445000
     76 H591        11.2630   -41.7240    54.7400 hc         1 AXQ       0.070200
     77 H592        11.4930   -40.2540    53.8040 hc         1 AXQ       0.070200
     78 H62         13.4110   -41.2580    52.6130 hc         1 AXQ       0.053700
     79 H641        15.0410   -41.3550    54.4820 hc         1 AXQ       0.047367
     80 H642        13.7130   -41.5100    55.6520 hc         1 AXQ       0.047367
     81 H643        13.8910   -40.0210    54.6990 hc         1 AXQ       0.047367
     82 H70         13.9110   -42.9660    51.5180 hn         1 AXQ       0.327500
     83 H72         14.3810   -45.6140    52.6810 h1         1 AXQ       0.066700
     84 H74         11.8920   -45.5600    52.4110 hc         1 AXQ       0.052700
     85 H761        10.8030   -45.5680    50.2050 hc         1 AXQ       0.040533
     86 H762        12.3600   -45.3250    49.3910 hc         1 AXQ       0.040533
     87 H763        11.6880   -44.0520    50.4320 hc         1 AXQ       0.040533
     88 H801        13.1330   -47.7290    52.2760 hc         1 AXQ       0.040533
     89 H802        13.1250   -47.5980    50.4990 hc         1 AXQ       0.040533
     90 H803        11.5990   -47.7270    51.3880 hc         1 AXQ       0.040533
     91 H86         15.3320   -47.1130    51.1750 hn         1 AXQ       0.309500
     92 H881        16.4470   -46.0330    48.6220 h1         1 AXQ       0.054200
     93 H882        16.4300   -47.7230    49.1500 h1         1 AXQ       0.054200
     94 H911        18.7170   -46.8720    49.2450 hc         1 AXQ       0.039200
     95 H912        18.1590   -47.2360    50.8740 hc         1 AXQ       0.039200
     96 H941        17.7470   -44.7960    51.2930 hc         1 AXQ       0.052700
     97 H942        18.2330   -44.4200    49.6400 hc         1 AXQ       0.052700
     98 H971        20.0570   -45.6540    51.7920 hc         1 AXQ       0.029700
     99 H972        20.0870   -43.9650    51.2420 hc         1 AXQ       0.029700
    100 H973        20.5540   -45.2680    50.1270 hc         1 AXQ       0.029700
@<TRIPOS>BOND
     1     1     2 1   
     2     1    15 1   
     3     2     3 1   
     4     2    46 1   
     5     2    47 1   
     6     3     4 1   
     7     3    27 1   
     8     3    48 1   
     9     4     5 1   
    10     4    49 1   
    11     5     6 1   
    12     5    26 2   
    13     6     7 1   
    14     6    25 1   
    15     6    50 1   
    16     7     8 1   
    17     7    51 1   
    18     8     9 1   
    19     8    24 2   
    20     9    10 1   
    21     9    16 1   
    22     9    52 1   
    23    10    11 1   
    24    10    53 1   
    25    10    54 1   
    26    11    12 1   
    27    12    13 1   
    28    12    55 1   
    29    12    56 1   
    30    13    14 2   
    31    13    57 1   
    32    14    15 1   
    33    14    58 1   
    34    15    59 1   
    35    15    60 1   
    36    16    17 1   
    37    16    61 1   
    38    17    18 2   
    39    17    19 1   
    40    19    20 1   
    41    20    21 1   
    42    20    22 1   
    43    20    23 1   
    44    21    62 1   
    45    21    63 1   
    46    21    64 1   
    47    22    65 1   
    48    22    66 1   
    49    22    67 1   
    50    23    68 1   
    51    23    69 1   
    52    23    70 1   
    53    25    71 1   
    54    25    72 1   
    55    25    73 1   
    56    27    28 1   
    57    27    29 1   
    58    27    74 1   
    59    28    75 1   
    60    29    30 1   
    61    29    76 1   
    62    29    77 1   
    63    30    31 1   
    64    30    32 1   
    65    30    78 1   
    66    31    79 1   
    67    31    80 1   
    68    31    81 1   
    69    32    33 2   
    70    32    34 1   
    71    34    35 1   
    72    34    82 1   
    73    35    36 1   
    74    35    39 1   
    75    35    83 1   
    76    36    37 1   
    77    36    38 1   
    78    36    84 1   
    79    37    85 1   
    80    37    86 1   
    81    37    87 1   
    82    38    88 1   
    83    38    89 1   
    84    38    90 1   
    85    39    40 2   
    86    39    41 1   
    87    41    42 1   
    88    41    91 1   
    89    42    43 1   
    90    42    92 1   
    91    42    93 1   
    92    43    44 1   
    93    43    94 1   
    94    43    95 1   
    95    44    45 1   
    96    44    96 1   
    97    44    97 1   
    98    45    98 1   
    99    45    99 1   
   100    45   100 1   
@<TRIPOS>SUBSTRUCTURE
     1 AXQ         1 TEMP              0 ****  ****    0 ROOT
