@<TRIPOS>MOLECULE
AXQ
  100   100     1     0     0
SMALL
abcg2


@<TRIPOS>ATOM
      1 S1           7.1550   -42.1590    52.3260 ss         1 AXQ      -0.450000
      2 C2           8.7650   -42.4910    51.5340 c3         1 AXQ       0.050600
      3 C5           9.8600   -41.5840    52.0860 c3         1 AXQ       0.094700
      4 N7           9.5060   -40.1910    51.8550 ns         1 AXQ      -0.503900
      5 C9           9.6130   -39.2170    52.7770 c          1 AXQ       0.584100
      6 C10          9.0480   -37.8490    52.3530 c3         1 AXQ       0.029700
      7 N12          7.9230   -37.9830    51.4430 ns         1 AXQ      -0.509900
      8 C14          7.9000   -37.5010    50.1840 c          1 AXQ       0.574100
      9 C15          6.5540   -37.7120    49.4610 c3         1 AXQ       0.063700
     10 C17          6.5110   -39.1070    48.8450 c3         1 AXQ       0.044600
     11 S20          4.8710   -39.4160    48.1050 ss         1 AXQ      -0.414000
     12 C21          4.9060   -41.2530    47.9980 c3         1 AXQ       0.098800
     13 C24          4.9230   -41.8900    49.3430 c2         1 AXQ      -0.203200
     14 C26          5.9780   -42.5350    49.8370 c2         1 AXQ      -0.227200
     15 C28          6.0480   -43.1140    51.2090 c3         1 AXQ       0.111800
     16 N31          6.3380   -36.7070    48.4490 ns         1 AXQ      -0.476900
     17 C33          6.1470   -35.4080    48.8020 c          1 AXQ       0.650100
     18 O34          5.9680   -35.0430    49.9530 o          1 AXQ      -0.550000
     19 O35          6.1640   -34.6250    47.7140 os         1 AXQ      -0.477100
     20 C36          5.9430   -33.1660    47.7950 c3         1 AXQ       0.220000
     21 C37          6.0510   -32.7340    46.3380 c3         1 AXQ      -0.108767
     22 C41          4.5480   -32.8790    48.3380 c3         1 AXQ      -0.108767
     23 C45          7.0430   -32.5190    48.6290 c3         1 AXQ      -0.108767
     24 O49          8.8570   -36.9700    49.6330 o          1 AXQ      -0.592100
     25 C50          8.6740   -36.9960    53.5600 c3         1 AXQ      -0.095100
     26 O54         10.1530   -39.3710    53.8690 o          1 AXQ      -0.594100
     27 C55         11.2180   -41.9370    51.4460 c3         1 AXQ       0.153300
     28 O57         11.1970   -41.7000    50.0350 oh         1 AXQ      -0.673000
     29 C59         12.3800   -41.2230    52.1250 c3         1 AXQ      -0.099400
     30 C62         13.7590   -41.6100    51.5730 c3         1 AXQ      -0.126700
     31 C64         14.8720   -40.8360    52.2830 c3         1 AXQ      -0.082100
     32 C68         13.9750   -43.1070    51.7360 c          1 AXQ       0.597100
     33 O69         14.0710   -43.6380    52.8460 o          1 AXQ      -0.617100
     34 N70         14.0210   -43.8210    50.5970 ns         1 AXQ      -0.487900
     35 C72         14.1720   -45.2600    50.5810 c3         1 AXQ       0.044700
     36 C74         13.7410   -45.8190    49.2040 c3         1 AXQ      -0.068700
     37 C76         14.6590   -45.3960    48.0540 c3         1 AXQ      -0.090100
     38 C80         13.5790   -47.3390    49.2360 c3         1 AXQ      -0.090100
     39 C84         15.6080   -45.6590    50.9610 c          1 AXQ       0.592100
     40 O85         16.5780   -44.9810    50.6250 o          1 AXQ      -0.605100
     41 N86         15.7030   -46.8120    51.6440 ns         1 AXQ      -0.502900
     42 C88         16.9560   -47.4380    52.0410 c3         1 AXQ       0.102000
     43 C91         17.2210   -47.3430    53.5430 c3         1 AXQ      -0.094400
     44 C94         17.4210   -45.9160    54.0470 c3         1 AXQ      -0.079400
     45 C97         17.6790   -45.8570    55.5510 c3         1 AXQ      -0.087100
     46 H21          8.6710   -42.3280    50.4620 h1         1 AXQ       0.070700
     47 H22          9.0400   -43.5320    51.7030 h1         1 AXQ       0.070700
     48 H5           9.9530   -41.7190    53.1640 h1         1 AXQ       0.099700
     49 HN7          8.9790   -39.9840    51.0200 hn         1 AXQ       0.318500
     50 H10          9.8400   -37.3550    51.7870 h1         1 AXQ       0.099700
     51 H12          7.0610   -38.3430    51.8280 hn         1 AXQ       0.324500
     52 H15          5.7560   -37.6290    50.2000 h1         1 AXQ       0.095700
     53 H171         6.6820   -39.8500    49.6220 h1         1 AXQ       0.074200
     54 H172         7.2860   -39.2130    48.0840 h1         1 AXQ       0.074200
     55 H211         5.7660   -41.5520    47.3980 h1         1 AXQ       0.078700
     56 H212         3.9970   -41.4930    47.4450 h1         1 AXQ       0.078700
     57 H24          4.0310   -41.7650    49.9500 ha         1 AXQ       0.189000
     58 H26          6.8630   -42.6420    49.2160 ha         1 AXQ       0.171000
     59 H281         5.0750   -43.0870    51.6990 h1         1 AXQ       0.079200
     60 H282         6.4020   -44.1460    51.1960 h1         1 AXQ       0.079200
     61 H31          6.6660   -36.8890    47.5130 hn         1 AXQ       0.332500
     62 H371         5.2900   -33.2300    45.7340 hc         1 AXQ       0.051589
     63 H372         7.0350   -32.9800    45.9370 hc         1 AXQ       0.051589
     64 H373         5.9040   -31.6560    46.2640 hc         1 AXQ       0.051589
     65 H411         3.7980   -33.4110    47.7500 hc         1 AXQ       0.051589
     66 H412         4.3490   -31.8090    48.2580 hc         1 AXQ       0.051589
     67 H413         4.4570   -33.1750    49.3810 hc         1 AXQ       0.051589
     68 H451         6.9740   -32.8110    49.6740 hc         1 AXQ       0.051589
     69 H452         6.9490   -31.4340    48.5610 hc         1 AXQ       0.051589
     70 H453         8.0240   -32.8020    48.2430 hc         1 AXQ       0.051589
     71 H501         8.3600   -36.0080    53.2230 hc         1 AXQ       0.055367
     72 H502         9.5250   -36.8910    54.2290 hc         1 AXQ       0.055367
     73 H503         7.8530   -37.4550    54.1150 hc         1 AXQ       0.055367
     74 H55         11.3440   -43.0170    51.5460 h1         1 AXQ       0.079700
     75 H57         11.1870   -40.7440    49.8900 ho         1 AXQ       0.445000
     76 H591        12.3480   -41.4430    53.1940 hc         1 AXQ       0.070200
     77 H592        12.2540   -40.1420    52.0170 hc         1 AXQ       0.070200
     78 H62         13.7860   -41.3670    50.5090 hc         1 AXQ       0.053700
     79 H641        15.8510   -41.0900    51.8730 hc         1 AXQ       0.047367
     80 H642        14.8780   -41.0640    53.3500 hc         1 AXQ       0.047367
     81 H643        14.7180   -39.7630    52.1620 hc         1 AXQ       0.047367
     82 H70         13.9670   -43.3280    49.7200 hn         1 AXQ       0.327500
     83 H72         13.4970   -45.6700    51.3340 h1         1 AXQ       0.066700
     84 H74         12.7520   -45.3830    49.0290 hc         1 AXQ       0.052700
     85 H761        14.2380   -45.7370    47.1070 hc         1 AXQ       0.040533
     86 H762        15.6510   -45.8380    48.1630 hc         1 AXQ       0.040533
     87 H763        14.7810   -44.3140    47.9900 hc         1 AXQ       0.040533
     88 H801        12.9340   -47.6540    50.0580 hc         1 AXQ       0.040533
     89 H802        14.5430   -47.8400    49.3470 hc         1 AXQ       0.040533
     90 H803        13.1320   -47.6820    48.3010 hc         1 AXQ       0.040533
     91 H86         14.8480   -47.2730    51.9150 hn         1 AXQ       0.309500
     92 H881        17.7520   -46.9500    51.4830 h1         1 AXQ       0.054200
     93 H882        16.9230   -48.4860    51.7360 h1         1 AXQ       0.054200
     94 H911        18.1120   -47.9390    53.7630 hc         1 AXQ       0.039200
     95 H912        16.3910   -47.8120    54.0830 hc         1 AXQ       0.039200
     96 H941        16.5390   -45.3180    53.8040 hc         1 AXQ       0.052700
     97 H942        18.2600   -45.4620    53.5100 hc         1 AXQ       0.052700
     98 H971        16.8400   -46.2810    56.1090 hc         1 AXQ       0.029700
     99 H972        17.8200   -44.8280    55.8900 hc         1 AXQ       0.029700
    100 H973        18.5760   -46.4230    55.8180 hc         1 AXQ       0.029700
@<TRIPOS>BOND
     1     1     2 1   
     2     1    15 1   
     3     2     3 1   
     4     2    46 1   
     5     2    47 1   
     6     3     4 1   
     7     3    27 1   
     8     3    48 1   
     9     4     5 1   
    10     4    49 1   
    11     5     6 1   
    12     5    26 2   
    13     6     7 1   
    14     6    25 1   
    15     6    50 1   
    16     7     8 1   
    17     7    51 1   
    18     8     9 1   
    19     8    24 2   
    20     9    10 1   
    21     9    16 1   
    22     9    52 1   
    23    10    11 1   
    24    10    53 1   
    25    10    54 1   
    26    11    12 1   
    27    12    13 1   
    28    12    55 1   
    29    12    56 1   
    30    13    14 2   
    31    13    57 1   
    32    14    15 1   
    33    14    58 1   
    34    15    59 1   
    35    15    60 1   
    36    16    17 1   
    37    16    61 1   
    38    17    18 2   
    39    17    19 1   
    40    19    20 1   
    41    20    21 1   
    42    20    22 1   
    43    20    23 1   
    44    21    62 1   
    45    21    63 1   
    46    21    64 1   
    47    22    65 1   
    48    22    66 1   
    49    22    67 1   
    50    23    68 1   
    51    23    69 1   
    52    23    70 1   
    53    25    71 1   
    54    25    72 1   
    55    25    73 1   
    56    27    28 1   
    57    27    29 1   
    58    27    74 1   
    59    28    75 1   
    60    29    30 1   
    61    29    76 1   
    62    29    77 1   
    63    30    31 1   
    64    30    32 1   
    65    30    78 1   
    66    31    79 1   
    67    31    80 1   
    68    31    81 1   
    69    32    33 2   
    70    32    34 1   
    71    34    35 1   
    72    34    82 1   
    73    35    36 1   
    74    35    39 1   
    75    35    83 1   
    76    36    37 1   
    77    36    38 1   
    78    36    84 1   
    79    37    85 1   
    80    37    86 1   
    81    37    87 1   
    82    38    88 1   
    83    38    89 1   
    84    38    90 1   
    85    39    40 2   
    86    39    41 1   
    87    41    42 1   
    88    41    91 1   
    89    42    43 1   
    90    42    92 1   
    91    42    93 1   
    92    43    44 1   
    93    43    94 1   
    94    43    95 1   
    95    44    45 1   
    96    44    96 1   
    97    44    97 1   
    98    45    98 1   
    99    45    99 1   
   100    45   100 1   
@<TRIPOS>SUBSTRUCTURE
     1 AXQ         1 TEMP              0 ****  ****    0 ROOT
