@<TRIPOS>MOLECULE
AXR
   23    23     1     0     0
SMALL
No Charge or Current Charge


@<TRIPOS>ATOM
      1 O5          12.8110    38.8750    -1.6070 oh         1 AXR      -0.711000
      2 C5          14.0550    38.1610    -1.6890 c3         1 AXR       0.168600
      3 C4          15.2320    39.1650    -1.7740 c5         1 AXR       0.096300
      4 O4          15.2760    39.9730    -0.5780 os         1 AXR      -0.486000
      5 C3          16.6480    38.5260    -1.7620 c5         1 AXR       0.097300
      6 O3          17.0030    37.8150    -2.9620 oh         1 AXR      -0.694000
      7 C2          17.4910    39.8190    -1.5450 c5         1 AXR       0.112300
      8 O2          18.8260    39.5390    -1.0800 oh         1 AXR      -0.696000
      9 C1          16.5740    40.6170    -0.5340 c5         1 AXR       0.386300
     10 O1          16.4320    41.9600    -1.0480 os         1 AXR      -0.457000
     11 C6          15.6710    42.8750    -0.2430 c3         1 AXR       0.152900
     12 HO5         12.9760    39.6080    -0.9660 ho         1 AXR       0.512000
     13 H51         14.1940    37.5220    -0.8070 h1         1 AXR       0.053200
     14 H52         14.0700    37.5140    -2.5770 h1         1 AXR       0.053200
     15 H4          15.0920    39.8200    -2.6470 h1         1 AXR       0.058700
     16 H3          16.7420    37.8640    -0.8880 h1         1 AXR       0.099700
     17 HO3         16.8460    38.4130    -3.7300 ho         1 AXR       0.504000
     18 H2          17.5510    40.3800    -2.4890 h1         1 AXR       0.053700
     19 HO2         19.1940    38.8540    -1.6880 ho         1 AXR       0.518000
     20 H1          16.9790    40.6180     0.4860 h2         1 AXR       0.070700
     21 H6          16.1160    42.9790     0.7550 h1         1 AXR       0.035700
     22 H6A         15.6470    43.8660    -0.7120 h1         1 AXR       0.035700
     23 H6B         14.6360    42.5280    -0.1260 h1         1 AXR       0.035700
@<TRIPOS>BOND
     1     1     2 1   
     2     1    12 1   
     3     2     3 1   
     4     2    13 1   
     5     2    14 1   
     6     3     4 1   
     7     3     5 1   
     8     3    15 1   
     9     4     9 1   
    10     5     6 1   
    11     5     7 1   
    12     5    16 1   
    13     6    17 1   
    14     7     8 1   
    15     7     9 1   
    16     7    18 1   
    17     8    19 1   
    18     9    10 1   
    19     9    20 1   
    20    10    11 1   
    21    11    21 1   
    22    11    22 1   
    23    11    23 1   
@<TRIPOS>SUBSTRUCTURE
     1 AXR         1 TEMP              0 ****  ****    0 ROOT
