@<TRIPOS>MOLECULE
AXR
   23    23     1     0     0
SMALL
bcc


@<TRIPOS>ATOM
      1 O5          12.7870    38.6430    -1.7200 oh         1 AXR      -0.588800
      2 C5          14.0890    38.1260    -1.5970 c3         1 AXR       0.145400
      3 C4          15.1710    39.1410    -1.8900 c5         1 AXR       0.073100
      4 O4          15.1630    40.1530    -0.8910 os         1 AXR      -0.439600
      5 C3          16.5890    38.5780    -1.8170 c5         1 AXR       0.074100
      6 O3          16.9830    37.7920    -2.9030 oh         1 AXR      -0.571800
      7 C2          17.3910    39.8560    -1.5910 c5         1 AXR       0.089100
      8 O2          18.6350    39.6990    -0.9710 oh         1 AXR      -0.573800
      9 C1          16.4610    40.6760    -0.7010 c5         1 AXR       0.339900
     10 O1          16.5390    42.0140    -1.0470 os         1 AXR      -0.410600
     11 C6          15.9040    42.8890    -0.1380 c3         1 AXR       0.129700
     12 HO5         12.6500    39.2890    -1.0210 ho         1 AXR       0.413000
     13 H51         14.2670    37.6930    -0.6030 h1         1 AXR       0.053200
     14 H52         14.1790    37.3140    -2.3220 h1         1 AXR       0.053200
     15 H4          14.9930    39.5800    -2.8850 h1         1 AXR       0.058700
     16 H3          16.6770    37.9410    -0.9280 h1         1 AXR       0.099700
     17 HO3         16.9280    38.3200    -3.7080 ho         1 AXR       0.405000
     18 H2          17.4840    40.3720    -2.5600 h1         1 AXR       0.053700
     19 HO2         19.2250    39.2500    -1.5840 ho         1 AXR       0.419000
     20 H1          16.7200    40.5450     0.3620 h2         1 AXR       0.070700
     21 H6          16.2560    42.7300     0.8870 h1         1 AXR       0.035700
     22 H6A         16.1550    43.9060    -0.4330 h1         1 AXR       0.035700
     23 H6B         14.8160    42.7840    -0.1490 h1         1 AXR       0.035700
@<TRIPOS>BOND
     1     1     2 1   
     2     1    12 1   
     3     2     3 1   
     4     2    13 1   
     5     2    14 1   
     6     3     4 1   
     7     3     5 1   
     8     3    15 1   
     9     4     9 1   
    10     5     6 1   
    11     5     7 1   
    12     5    16 1   
    13     6    17 1   
    14     7     8 1   
    15     7     9 1   
    16     7    18 1   
    17     8    19 1   
    18     9    10 1   
    19     9    20 1   
    20    10    11 1   
    21    11    21 1   
    22    11    22 1   
    23    11    23 1   
@<TRIPOS>SUBSTRUCTURE
     1 AXR         1 TEMP              0 ****  ****    0 ROOT
