@<TRIPOS>MOLECULE
AXS
   31    32     1     0     0
SMALL
abcg2


@<TRIPOS>ATOM
      1 N1           0.7170    -0.4990     0.1440 n7         1 AXS      -0.851400
      2 C4          -4.0750    -1.0240    -0.0050 ca         1 AXS      -0.155500
      3 C5          -2.7940    -1.5360    -0.1620 ca         1 AXS      -0.073500
      4 C6          -1.6880    -0.7000    -0.2830 ca         1 AXS      -0.105300
      5 C7          -0.3140    -1.2790    -0.5030 c3         1 AXS       0.211100
      6 C8           2.0510    -0.9940    -0.1260 c3         1 AXS       0.150800
      7 C10          4.5250    -0.7110     0.3550 c5         1 AXS      -0.109400
      8 C1          -1.8910     0.6780    -0.2320 ca         1 AXS      -0.073500
      9 C2          -3.1620     1.2110    -0.0720 ca         1 AXS      -0.155500
     10 C3          -4.2340     0.3470     0.0360 ca         1 AXS       0.169000
     11 C9           3.1160    -0.1370     0.5310 c5         1 AXS       0.164300
     12 C11          5.3800     0.5380     0.1810 c5         1 AXS      -0.114400
     13 C12          4.4220     1.4420    -0.5750 c5         1 AXS       0.150600
     14 O1           3.1420     1.1740    -0.0280 os         1 AXS      -0.444000
     15 F1          -5.4700     0.8560     0.1900 f          1 AXS      -0.182000
     16 H1           0.5580    -0.5030     1.1460 hn         1 AXS       0.411000
     17 H4          -2.6590    -2.6110    -0.1860 ha         1 AXS       0.126000
     18 H5          -0.1020    -1.2840    -1.5780 h1         1 AXS       0.035200
     19 H6          -0.3180    -2.3370    -0.1990 h1         1 AXS       0.035200
     20 H7           2.1970    -2.0350     0.2070 h1         1 AXS       0.033700
     21 H8           2.2110    -0.9950    -1.2100 h1         1 AXS       0.033700
     22 H9           4.8240    -1.3300     1.2000 hc         1 AXS       0.053200
     23 H10          4.5760    -1.3330    -0.5430 hc         1 AXS       0.053200
     24 H11         -1.0420     1.3440    -0.3100 ha         1 AXS       0.126000
     25 H12         -3.3130     2.2820    -0.0320 ha         1 AXS       0.131000
     26 H13          2.8830    -0.0420     1.6010 h1         1 AXS       0.051700
     27 H14          5.6370     0.9730     1.1490 hc         1 AXS       0.055200
     28 H15          6.3070     0.3550    -0.3630 hc         1 AXS       0.055200
     29 H16          4.6410     2.5050    -0.4570 h1         1 AXS       0.044700
     30 H17          4.4460     1.2120    -1.6490 h1         1 AXS       0.044700
     31 H3          -4.9280    -1.6820     0.0900 ha         1 AXS       0.131000
@<TRIPOS>BOND
     1     1     5 1   
     2     1     6 1   
     3     1    16 1   
     4     2     3 ar  
     5     2    10 ar  
     6     2    31 1   
     7     3     4 ar  
     8     3    17 1   
     9     4     5 1   
    10     4     8 ar  
    11     5    18 1   
    12     5    19 1   
    13     6    11 1   
    14     6    20 1   
    15     6    21 1   
    16     7    11 1   
    17     7    12 1   
    18     7    22 1   
    19     7    23 1   
    20     8     9 ar  
    21     8    24 1   
    22     9    10 ar  
    23     9    25 1   
    24    10    15 1   
    25    11    14 1   
    26    11    26 1   
    27    12    13 1   
    28    12    27 1   
    29    12    28 1   
    30    13    14 1   
    31    13    29 1   
    32    13    30 1   
@<TRIPOS>SUBSTRUCTURE
     1 AXS         1 TEMP              0 ****  ****    0 ROOT
