@<TRIPOS>MOLECULE
AXS
   31    32     1     0     0
SMALL
No Charge or Current Charge


@<TRIPOS>ATOM
      1 N1           0.7200    -0.5110     0.0170 n7         1 AXS      -0.851400
      2 C4          -3.8250    -0.9390     0.5840 ca         1 AXS      -0.155500
      3 C5          -2.5410    -1.3920     0.2310 ca         1 AXS      -0.073500
      4 C6          -1.6790    -0.5660    -0.5200 ca         1 AXS      -0.105300
      5 C7          -0.2900    -1.0530    -0.9070 c3         1 AXS       0.211100
      6 C8           2.1140    -0.9440    -0.2460 c3         1 AXS       0.150800
      7 C10          4.6210    -0.8410     0.4950 c5         1 AXS      -0.109400
      8 C1          -2.1140     0.7170    -0.9130 ca         1 AXS      -0.073500
      9 C2          -3.3980     1.1680    -0.5590 ca         1 AXS      -0.155500
     10 C3          -4.2490     0.3390     0.1870 ca         1 AXS       0.169000
     11 C9           3.1520    -0.3760     0.7770 c5         1 AXS       0.164300
     12 C11          5.3870     0.4870     0.2140 c5         1 AXS      -0.114400
     13 C12          4.2380     1.4130    -0.2320 c5         1 AXS       0.150600
     14 O1           3.2100     1.0710     0.7090 os         1 AXS      -0.444000
     15 F1          -5.4820     0.7730     0.5270 f          1 AXS      -0.182000
     16 H1           0.4620    -0.8000     0.9670 hn         1 AXS       0.411000
     17 H4          -2.2160    -2.3830     0.5410 ha         1 AXS       0.126000
     18 H5          -0.0740    -0.7400    -1.9380 h1         1 AXS       0.035200
     19 H6          -0.2750    -2.1520    -0.8900 h1         1 AXS       0.035200
     20 H7           2.1730    -2.0400    -0.2060 h1         1 AXS       0.033700
     21 H8           2.4170    -0.6440    -1.2580 h1         1 AXS       0.033700
     22 H9           5.0480    -1.3860     1.3450 hc         1 AXS       0.053200
     23 H10          4.6690    -1.5160    -0.3680 hc         1 AXS       0.053200
     24 H11         -1.4530     1.3620    -1.4890 ha         1 AXS       0.126000
     25 H12         -3.7330     2.1570    -0.8620 ha         1 AXS       0.131000
     26 H13          2.8360    -0.6650     1.7890 h1         1 AXS       0.051700
     27 H14          5.8680     0.8720     1.1210 hc         1 AXS       0.055200
     28 H15          6.1630     0.3770    -0.5520 hc         1 AXS       0.055200
     29 H16          4.4870     2.4800    -0.1560 h1         1 AXS       0.044700
     30 H17          3.8940     1.1920    -1.2530 h1         1 AXS       0.044700
     31 H3          -4.4900    -1.5750     1.1620 ha         1 AXS       0.131000
@<TRIPOS>BOND
     1     1     5 1   
     2     1     6 1   
     3     1    16 1   
     4     2     3 ar  
     5     2    10 ar  
     6     2    31 1   
     7     3     4 ar  
     8     3    17 1   
     9     4     5 1   
    10     4     8 ar  
    11     5    18 1   
    12     5    19 1   
    13     6    11 1   
    14     6    20 1   
    15     6    21 1   
    16     7    11 1   
    17     7    12 1   
    18     7    22 1   
    19     7    23 1   
    20     8     9 ar  
    21     8    24 1   
    22     9    10 ar  
    23     9    25 1   
    24    10    15 1   
    25    11    14 1   
    26    11    26 1   
    27    12    13 1   
    28    12    27 1   
    29    12    28 1   
    30    13    14 1   
    31    13    29 1   
    32    13    30 1   
@<TRIPOS>SUBSTRUCTURE
     1 AXS         1 TEMP              0 ****  ****    0 ROOT
