@<TRIPOS>MOLECULE
AXT
   96    97     1     0     0
SMALL
abcg2


@<TRIPOS>ATOM
      1 C1          45.9810    74.3840    25.3720 c6         1 AXT      -0.011800
      2 C2          46.6620    73.6090    26.5080 c6         1 AXT      -0.075400
      3 C3          47.6510    72.5900    25.9960 c6         1 AXT       0.079300
      4 C4          48.7230    73.3220    25.2250 c          1 AXT       0.541300
      5 C5          48.3050    74.4280    24.3560 ce         1 AXT      -0.196400
      6 C6          47.0280    74.9160    24.3940 cf         1 AXT       0.006300
      7 C7          46.7010    75.9750    23.4510 cf         1 AXT      -0.194000
      8 C8          45.4880    76.3650    23.0050 ce         1 AXT      -0.150500
      9 C9          45.2670    77.4000    22.0180 ce         1 AXT      -0.076200
     10 C10         43.9780    77.6620    21.6740 cf         1 AXT      -0.166000
     11 C11         43.5060    78.6210    20.7180 cf         1 AXT      -0.178000
     12 C12         42.1860    78.8190    20.4930 ce         1 AXT      -0.166000
     13 C13         41.6260    79.7500    19.5440 ce         1 AXT      -0.065200
     14 C14         40.2700    79.8520    19.4790 cf         1 AXT      -0.173000
     15 C15         39.5100    80.6990    18.6120 cf         1 AXT      -0.171000
     16 C16         45.2080    75.5170    26.0610 c3         1 AXT      -0.083850
     17 C17         45.0060    73.4470    24.6360 c3         1 AXT      -0.083850
     18 C18         49.3540    74.9590    23.4160 c3         1 AXT      -0.050400
     19 C19         46.4490    78.1140    21.4390 c3         1 AXT      -0.054900
     20 C20         42.5650    80.5520    18.6930 c3         1 AXT      -0.055900
     21 O3          48.1850    71.8500    27.0580 oh         1 AXT      -0.650000
     22 O4          49.8830    72.9500    25.3120 o          1 AXT      -0.536100
     23 C21         31.7380    87.6680    12.4350 c6         1 AXT      -0.011800
     24 C22         31.0600    88.8130    11.6700 c6         1 AXT      -0.075400
     25 C23         30.0700    88.3120    10.6460 c6         1 AXT       0.079300
     26 C24         28.9970    87.5330    11.3680 c          1 AXT       0.541300
     27 C25         29.4120    86.6570    12.4690 ce         1 AXT      -0.196400
     28 C26         30.6850    86.6940    12.9630 cf         1 AXT       0.006300
     29 C27         31.0030    85.7590    14.0330 cf         1 AXT      -0.194000
     30 C28         32.2110    85.2830    14.4040 ce         1 AXT      -0.150500
     31 C29         32.4270    84.3170    15.4580 ce         1 AXT      -0.076200
     32 C30         33.7070    83.9230    15.6860 cf         1 AXT      -0.166000
     33 C31         34.1720    82.9840    16.6650 cf         1 AXT      -0.178000
     34 C32         35.4860    82.6890    16.8050 ce         1 AXT      -0.166000
     35 C33         36.0440    81.7670    17.7650 ce         1 AXT      -0.065200
     36 C34         37.3950    81.6110    17.7840 ce         1 AXT      -0.173000
     37 C35         38.1560    80.7650    18.6510 ce         1 AXT      -0.171000
     38 C37         32.7060    86.9330    11.4900 c3         1 AXT      -0.083850
     39 C38         28.3620    85.7130    12.9920 c3         1 AXT      -0.050400
     40 C39         31.2460    83.8100    16.2270 c3         1 AXT      -0.054900
     41 C40         35.1080    81.0410    18.6840 c3         1 AXT      -0.055900
     42 O24         27.8380    87.6220    10.9930 o          1 AXT      -0.536100
     43 O23         29.5380    89.3810     9.9150 oh         1 AXT      -0.650000
     44 HC21        45.8940    73.1190    27.1100 hc         1 AXT       0.062200
     45 HC22        47.1850    74.3110    27.1670 hc         1 AXT       0.062200
     46 H3          47.1520    71.9260    25.2710 h1         1 AXT       0.056700
     47 H7          47.5560    76.4820    23.0240 ha         1 AXT       0.180000
     48 H8          44.5870    75.8820    23.3590 ha         1 AXT       0.175000
     49 H10         43.2060    77.0820    22.1730 ha         1 AXT       0.168000
     50 H11         44.2310    79.2010    20.1600 ha         1 AXT       0.177000
     51 H12         41.4750    78.2330    21.0710 ha         1 AXT       0.170000
     52 H14         39.6900    79.2310    20.1570 ha         1 AXT       0.170000
     53 H15         40.0330    81.3170    17.8900 ha         1 AXT       0.173000
     54 H161        44.5860    76.1000    25.3880 hc         1 AXT       0.040117
     55 H162        45.8900    76.2040    26.5640 hc         1 AXT       0.040117
     56 H163        44.5510    75.0880    26.8200 hc         1 AXT       0.040117
     57 H171        44.3420    73.9830    23.9610 hc         1 AXT       0.040117
     58 H172        44.3780    72.9220    25.3580 hc         1 AXT       0.040117
     59 H173        45.5280    72.6960    24.0410 hc         1 AXT       0.040117
     60 H181        50.2800    74.3980    23.5100 hc         1 AXT       0.049367
     61 H182        49.5910    76.0060    23.6190 hc         1 AXT       0.049367
     62 H183        49.0360    74.8940    22.3740 hc         1 AXT       0.049367
     63 H191        46.1700    78.8970    20.7390 hc         1 AXT       0.044033
     64 H192        47.1050    77.4200    20.9100 hc         1 AXT       0.044033
     65 H193        47.0470    78.5810    22.2240 hc         1 AXT       0.044033
     66 H201        42.0520    81.2030    17.9900 hc         1 AXT       0.043533
     67 H202        43.2220    79.8980    18.1170 hc         1 AXT       0.043533
     68 H203        43.2070    81.1810    19.3120 hc         1 AXT       0.043533
     69 HA          49.0710    71.5660    26.7990 ho         1 AXT       0.467000
     70 H221        31.8300    89.4180    11.1850 hc         1 AXT       0.062200
     71 H222        30.5390    89.4670    12.3780 hc         1 AXT       0.062200
     72 H23         30.5700    87.5930     9.9750 h1         1 AXT       0.056700
     73 H27         30.1460    85.3690    14.5660 ha         1 AXT       0.180000
     74 H28         33.1090    85.5970    13.8880 ha         1 AXT       0.175000
     75 H30         34.4790    84.3650    15.0600 ha         1 AXT       0.168000
     76 H31         33.4480    82.5000    17.3090 ha         1 AXT       0.177000
     77 H32         36.1950    83.1870    16.1480 ha         1 AXT       0.170000
     78 H34         37.9740    82.1900    17.0680 ha         1 AXT       0.170000
     79 H35         37.6330    80.1530    19.3790 ha         1 AXT       0.173000
     80 H361        33.1410    87.6610    14.1450 hc         1 AXT       0.040117
     81 H362        31.8410    88.8400    14.2670 hc         1 AXT       0.040117
     82 H363        33.1750    89.1040    13.1470 hc         1 AXT       0.040117
     83 H371        33.3660    86.2480    12.0200 hc         1 AXT       0.040117
     84 H372        33.3410    87.6560    10.9740 hc         1 AXT       0.040117
     85 H373        32.1820    86.3500    10.7340 hc         1 AXT       0.040117
     86 H381        27.4500    85.7800    12.4040 hc         1 AXT       0.049367
     87 H382        28.0930    85.9360    14.0270 hc         1 AXT       0.049367
     88 H383        28.6980    84.6760    12.9590 hc         1 AXT       0.049367
     89 H391        31.5230    83.1360    17.0340 hc         1 AXT       0.044033
     90 H392        30.5560    83.2720    15.5730 hc         1 AXT       0.044033
     91 H393        30.6850    84.6340    16.6720 hc         1 AXT       0.044033
     92 H401        35.6210    80.3810    19.3780 hc         1 AXT       0.043533
     93 H402        34.4000    80.4330    18.1170 hc         1 AXT       0.043533
     94 H403        34.5190    81.7430    19.2770 hc         1 AXT       0.043533
     95 HB          28.6500    89.1270     9.6320 ho         1 AXT       0.467000
     96 C36         32.5190    88.3420    13.5710 c3         1 AXT      -0.083850
@<TRIPOS>BOND
     1     1     2 1   
     2     1     6 1   
     3     1    16 1   
     4     1    17 1   
     5     2     3 1   
     6     2    44 1   
     7     2    45 1   
     8     3     4 1   
     9     3    21 1   
    10     3    46 1   
    11     4     5 1   
    12     4    22 2   
    13     5     6 2   
    14     5    18 1   
    15     6     7 1   
    16     7     8 2   
    17     7    47 1   
    18     8     9 1   
    19     8    48 1   
    20     9    10 2   
    21     9    19 1   
    22    10    11 1   
    23    10    49 1   
    24    11    12 2   
    25    11    50 1   
    26    12    13 1   
    27    12    51 1   
    28    13    14 2   
    29    13    20 1   
    30    14    15 1   
    31    14    52 1   
    32    15    37 2   
    33    15    53 1   
    34    16    54 1   
    35    16    55 1   
    36    16    56 1   
    37    17    57 1   
    38    17    58 1   
    39    17    59 1   
    40    18    60 1   
    41    18    61 1   
    42    18    62 1   
    43    19    63 1   
    44    19    64 1   
    45    19    65 1   
    46    20    66 1   
    47    20    67 1   
    48    20    68 1   
    49    21    69 1   
    50    23    24 1   
    51    23    28 1   
    52    23    38 1   
    53    23    96 1   
    54    24    25 1   
    55    24    70 1   
    56    24    71 1   
    57    25    26 1   
    58    25    43 1   
    59    25    72 1   
    60    26    27 1   
    61    26    42 2   
    62    27    28 2   
    63    27    39 1   
    64    28    29 1   
    65    29    30 2   
    66    29    73 1   
    67    30    31 1   
    68    30    74 1   
    69    31    32 2   
    70    31    40 1   
    71    32    33 1   
    72    32    75 1   
    73    33    34 2   
    74    33    76 1   
    75    34    35 1   
    76    34    77 1   
    77    35    36 2   
    78    35    41 1   
    79    36    37 1   
    80    36    78 1   
    81    37    79 1   
    82    38    83 1   
    83    38    84 1   
    84    38    85 1   
    85    39    86 1   
    86    39    87 1   
    87    39    88 1   
    88    40    89 1   
    89    40    90 1   
    90    40    91 1   
    91    41    92 1   
    92    41    93 1   
    93    41    94 1   
    94    43    95 1   
    95    80    96 1   
    96    81    96 1   
    97    82    96 1   
@<TRIPOS>SUBSTRUCTURE
     1 AXT         1 TEMP              0 ****  ****    0 ROOT
