@<TRIPOS>MOLECULE
AXT
   96    97     1     0     0
SMALL
No Charge or Current Charge


@<TRIPOS>ATOM
      1 C1          46.1470    74.4640    25.6850 c6         1 AXT      -0.011800
      2 C2          47.0000    74.0560    26.9190 c6         1 AXT      -0.075400
      3 C3          47.8200    72.7670    26.6920 c6         1 AXT       0.079300
      4 C4          48.5790    72.7530    25.3280 c          1 AXT       0.541300
      5 C5          48.2660    73.8460    24.3330 ce         1 AXT      -0.196400
      6 C6          47.1560    74.6430    24.4540 cf         1 AXT       0.006300
      7 C7          46.8910    75.7290    23.5050 cf         1 AXT      -0.194000
      8 C8          45.7030    75.9880    22.8830 ce         1 AXT      -0.150500
      9 C9          45.4190    77.0680    21.9160 ce         1 AXT      -0.076200
     10 C10         44.1260    77.3630    21.5880 cf         1 AXT      -0.166000
     11 C11         43.6580    78.3900    20.6590 cf         1 AXT      -0.178000
     12 C12         42.3470    78.5830    20.3380 ce         1 AXT      -0.166000
     13 C13         41.7920    79.6030    19.4250 ce         1 AXT      -0.065200
     14 C14         40.4450    79.8340    19.4010 cf         1 AXT      -0.173000
     15 C15         39.7230    80.7960    18.5700 cf         1 AXT      -0.171000
     16 C16         45.3790    75.7920    26.0850 c3         1 AXT      -0.083850
     17 C17         45.0370    73.3690    25.4020 c3         1 AXT      -0.083850
     18 C18         49.2630    74.0430    23.1860 c3         1 AXT      -0.050400
     19 C19         46.6180    77.7620    21.2730 c3         1 AXT      -0.054900
     20 C20         42.7690    80.3110    18.4890 c3         1 AXT      -0.055900
     21 O3          48.7270    72.5640    27.8030 oh         1 AXT      -0.650000
     22 O4          49.4270    71.8900    25.1140 o          1 AXT      -0.536100
     23 C21         31.3030    87.9870    12.6070 c6         1 AXT      -0.011800
     24 C22         30.3320    89.1340    12.2040 c6         1 AXT      -0.075400
     25 C23         29.5650    88.8480    10.8950 c6         1 AXT       0.079300
     26 C24         28.9540    87.4120    10.8390 c          1 AXT       0.541300
     27 C25         29.3500    86.4340    11.9200 ce         1 AXT      -0.196400
     28 C26         30.4260    86.6540    12.7430 cf         1 AXT       0.006300
     29 C27         30.7690    85.7160    13.8160 cf         1 AXT      -0.194000
     30 C28         32.0110    85.2180    14.0880 ce         1 AXT      -0.150500
     31 C29         32.3750    84.2640    15.1560 ce         1 AXT      -0.076200
     32 C30         33.6900    84.0690    15.4730 cf         1 AXT      -0.166000
     33 C31         34.2340    83.1750    16.4920 cf         1 AXT      -0.178000
     34 C32         35.5670    82.9840    16.7030 ce         1 AXT      -0.166000
     35 C33         36.1870    82.1010    17.7070 ce         1 AXT      -0.065200
     36 C34         37.6450    81.8970    17.7220 ce         1 AXT      -0.173000
     37 C35         38.3700    80.9300    18.5580 ce         1 AXT      -0.171000
     38 C37         32.4570    87.8450    11.5300 c3         1 AXT      -0.083850
     39 C38         28.4760    85.1850    12.0760 c3         1 AXT      -0.050400
     40 C39         31.2380    83.4840    15.8130 c3         1 AXT      -0.054900
     41 C40         35.3480    81.5740    18.8660 c3         1 AXT      -0.055900
     42 O24         28.1500    87.1280     9.9550 o          1 AXT      -0.536100
     43 O23         28.5500    89.8620    10.6930 oh         1 AXT      -0.650000
     44 HC21        46.3590    73.9260    27.8020 hc         1 AXT       0.062200
     45 HC22        47.6890    74.8770    27.1630 hc         1 AXT       0.062200
     46 H3          47.1170    71.9240    26.6330 h1         1 AXT       0.056700
     47 H7          47.7500    76.3570    23.2690 ha         1 AXT       0.180000
     48 H8          44.8600    75.3400    23.1180 ha         1 AXT       0.175000
     49 H10         43.3420    76.7840    22.0800 ha         1 AXT       0.168000
     50 H11         44.4070    79.0500    20.2240 ha         1 AXT       0.177000
     51 H12         41.6150    77.9300    20.8150 ha         1 AXT       0.170000
     52 H14         39.8260    79.2520    20.0870 ha         1 AXT       0.170000
     53 H15         40.3050    81.4580    17.9270 ha         1 AXT       0.173000
     54 H161        44.6470    76.0980    25.3300 hc         1 AXT       0.040117
     55 H162        46.0770    76.6260    26.2270 hc         1 AXT       0.040117
     56 H163        44.8240    75.6650    27.0230 hc         1 AXT       0.040117
     57 H171        44.3440    73.6890    24.6170 hc         1 AXT       0.040117
     58 H172        44.4400    73.1620    26.2990 hc         1 AXT       0.040117
     59 H173        45.4780    72.4220    25.0690 hc         1 AXT       0.040117
     60 H181        49.9790    73.2200    23.0850 hc         1 AXT       0.049367
     61 H182        49.8470    74.9600    23.3280 hc         1 AXT       0.049367
     62 H183        48.7470    74.1260    22.2220 hc         1 AXT       0.049367
     63 H191        46.3980    78.1200    20.2610 hc         1 AXT       0.044033
     64 H192        47.4720    77.0850    21.1610 hc         1 AXT       0.044033
     65 H193        46.9440    78.6210    21.8700 hc         1 AXT       0.044033
     66 H201        42.3010    80.6070    17.5440 hc         1 AXT       0.043533
     67 H202        43.6090    79.6650    18.2080 hc         1 AXT       0.043533
     68 H203        43.1810    81.2130    18.9560 hc         1 AXT       0.043533
     69 HA          49.3390    71.8380    27.5400 ho         1 AXT       0.467000
     70 H221        30.8790    90.0820    12.1030 hc         1 AXT       0.062200
     71 H222        29.6060    89.2870    13.0150 hc         1 AXT       0.062200
     72 H23         30.2860    88.8810    10.0650 h1         1 AXT       0.056700
     73 H27         29.9290    85.3790    14.4220 ha         1 AXT       0.180000
     74 H28         32.8370    85.5530    13.4620 ha         1 AXT       0.175000
     75 H30         34.4280    84.6540    14.9200 ha         1 AXT       0.168000
     76 H31         33.5260    82.6310    17.1170 ha         1 AXT       0.177000
     77 H32         36.2630    83.5210    16.0560 ha         1 AXT       0.170000
     78 H34         38.2330    82.4730    17.0050 ha         1 AXT       0.170000
     79 H35         37.7790    80.2720    19.1970 ha         1 AXT       0.173000
     80 H361        32.8010    87.7580    14.2650 hc         1 AXT       0.040117
     81 H362        31.2750    88.4900    14.7790 hc         1 AXT       0.040117
     82 H363        32.4550    89.4320    13.8590 hc         1 AXT       0.040117
     83 H371        33.2230    87.1310    11.8500 hc         1 AXT       0.040117
     84 H372        32.9590    88.8040    11.3520 hc         1 AXT       0.040117
     85 H373        32.0710    87.4880    10.5680 hc         1 AXT       0.040117
     86 H381        27.7890    85.0260    11.2370 hc         1 AXT       0.049367
     87 H382        27.8640    85.2450    12.9840 hc         1 AXT       0.049367
     88 H383        29.0890    84.2780    12.1500 hc         1 AXT       0.049367
     89 H391        31.5560    82.4940    16.1570 hc         1 AXT       0.044033
     90 H392        30.4130    83.2980    15.1170 hc         1 AXT       0.044033
     91 H393        30.8350    84.0260    16.6770 hc         1 AXT       0.044033
     92 H401        35.9350    81.4760    19.7860 hc         1 AXT       0.043533
     93 H402        34.9250    80.5900    18.6320 hc         1 AXT       0.043533
     94 H403        34.5180    82.2460    19.1120 hc         1 AXT       0.043533
     95 HB          27.9830    89.5500     9.9490 ho         1 AXT       0.467000
     96 C36         32.0000    88.4390    13.9580 c3         1 AXT      -0.083850
@<TRIPOS>BOND
     1     1     2 1   
     2     1     6 1   
     3     1    16 1   
     4     1    17 1   
     5     2     3 1   
     6     2    44 1   
     7     2    45 1   
     8     3     4 1   
     9     3    21 1   
    10     3    46 1   
    11     4     5 1   
    12     4    22 2   
    13     5     6 2   
    14     5    18 1   
    15     6     7 1   
    16     7     8 2   
    17     7    47 1   
    18     8     9 1   
    19     8    48 1   
    20     9    10 2   
    21     9    19 1   
    22    10    11 1   
    23    10    49 1   
    24    11    12 2   
    25    11    50 1   
    26    12    13 1   
    27    12    51 1   
    28    13    14 2   
    29    13    20 1   
    30    14    15 1   
    31    14    52 1   
    32    15    37 2   
    33    15    53 1   
    34    16    54 1   
    35    16    55 1   
    36    16    56 1   
    37    17    57 1   
    38    17    58 1   
    39    17    59 1   
    40    18    60 1   
    41    18    61 1   
    42    18    62 1   
    43    19    63 1   
    44    19    64 1   
    45    19    65 1   
    46    20    66 1   
    47    20    67 1   
    48    20    68 1   
    49    21    69 1   
    50    23    24 1   
    51    23    28 1   
    52    23    38 1   
    53    23    96 1   
    54    24    25 1   
    55    24    70 1   
    56    24    71 1   
    57    25    26 1   
    58    25    43 1   
    59    25    72 1   
    60    26    27 1   
    61    26    42 2   
    62    27    28 2   
    63    27    39 1   
    64    28    29 1   
    65    29    30 2   
    66    29    73 1   
    67    30    31 1   
    68    30    74 1   
    69    31    32 2   
    70    31    40 1   
    71    32    33 1   
    72    32    75 1   
    73    33    34 2   
    74    33    76 1   
    75    34    35 1   
    76    34    77 1   
    77    35    36 2   
    78    35    41 1   
    79    36    37 1   
    80    36    78 1   
    81    37    79 1   
    82    38    83 1   
    83    38    84 1   
    84    38    85 1   
    85    39    86 1   
    86    39    87 1   
    87    39    88 1   
    88    40    89 1   
    89    40    90 1   
    90    40    91 1   
    91    41    92 1   
    92    41    93 1   
    93    41    94 1   
    94    43    95 1   
    95    80    96 1   
    96    81    96 1   
    97    82    96 1   
@<TRIPOS>SUBSTRUCTURE
     1 AXT         1 TEMP              0 ****  ****    0 ROOT
