@<TRIPOS>MOLECULE
AXU
   45    49     1     0     0
SMALL
abcg2


@<TRIPOS>ATOM
      1 C10         -2.1340    -2.4670    -0.1360 cc         1 AXU       0.628800
      2 N12         -3.3200    -2.9730    -0.1560 nd         1 AXU      -0.530300
      3 C20          0.2430     2.4600     1.2330 ca         1 AXU      -0.089500
      4 C21          0.8980     3.6800     1.3150 ca         1 AXU      -0.103500
      5 C22          0.5040     4.7420     0.5120 ca         1 AXU      -0.099000
      6 C24         -1.1990     3.3640    -0.4850 ca         1 AXU      -0.089500
      7 C26          1.2300     0.9910    -2.0500 c3         1 AXU      -0.030900
      8 C28          4.0140    -0.3980    -0.9240 ca         1 AXU      -0.056000
      9 C02          5.0050    -1.0960    -0.2540 ca         1 AXU      -0.095300
     10 C03          4.6660    -1.8640     0.8790 ca         1 AXU      -0.085000
     11 C04          3.3720    -1.9540     1.3580 ca         1 AXU      -0.102000
     12 C05          2.4090    -1.2410     0.6640 ca         1 AXU       0.064100
     13 C07          0.5310    -0.3780    -0.0080 cd         1 AXU       0.059900
     14 C08         -0.8990    -0.1650     0.0860 cd         1 AXU      -0.056800
     15 C09         -1.9660    -1.0470     0.0280 cc         1 AXU      -0.234900
     16 C14         -4.4410    -0.8030     0.1240 c          1 AXU       0.476500
     17 C16         -3.1020    -0.2350     0.1260 cc         1 AXU       0.198500
     18 C19         -0.7920     2.3110     0.3220 ca         1 AXU      -0.011200
     19 C23         -0.5490     4.5850    -0.3790 ca         1 AXU      -0.103500
     20 C25          1.4460     0.0860    -0.8930 cc         1 AXU      -0.079400
     21 C27          2.6980    -0.4720    -0.4600 ca         1 AXU      -0.123800
     22 N11         -1.0480    -3.2950    -0.2230 nv         1 AXU      -0.979200
     23 N13         -4.3920    -2.1550     0.0070 ns         1 AXU      -0.239900
     24 N17         -2.7890     1.0420     0.2270 nd         1 AXU      -0.429800
     25 N18         -1.4660     1.0650     0.2090 na         1 AXU       0.263000
     26 O06          1.0890    -1.1860     0.9420 os         1 AXU      -0.145200
     27 O15         -5.4860    -0.1750     0.2260 o          1 AXU      -0.529000
     28 H1           0.5290     1.6430     1.8830 ha         1 AXU       0.137000
     29 H2           1.7100     3.8000     2.0200 ha         1 AXU       0.123000
     30 H3           1.0170     5.6920     0.5830 ha         1 AXU       0.120000
     31 H4          -2.0100     3.2320    -1.1880 ha         1 AXU       0.137000
     32 H5           1.6300     1.9870    -1.8490 hc         1 AXU       0.050367
     33 H6           1.7350     0.6090    -2.9380 hc         1 AXU       0.050367
     34 H7           0.1750     1.1030    -2.2910 hc         1 AXU       0.050367
     35 H8           4.2590     0.1930    -1.7990 ha         1 AXU       0.120000
     36 H9           7.0690    -0.5740     0.0530 hc         1 AXU       0.043700
     37 H10          6.8380    -2.0300    -0.9010 hc         1 AXU       0.043700
     38 H11          6.5380    -0.4500    -1.6190 hc         1 AXU       0.043700
     39 H12          5.4490    -2.4060     1.3950 ha         1 AXU       0.118000
     40 H13          3.1310    -2.5460     2.2320 ha         1 AXU       0.137000
     41 H14         -0.8570     5.4090    -1.0080 ha         1 AXU       0.123000
     42 H15         -1.2710    -4.2430    -0.4880 hn         1 AXU       0.460000
     43 H16         -0.2640    -2.9400    -0.7470 hn         1 AXU       0.460000
     44 H17         -5.2710    -2.6510    -0.0110 hn         1 AXU       0.350500
     45 C01          6.4350    -1.0350    -0.7060 c3         1 AXU      -0.045800
@<TRIPOS>BOND
     1     1     2 2   
     2     1    15 1   
     3     1    22 1   
     4     2    23 1   
     5     3     4 ar  
     6     3    18 ar  
     7     3    28 1   
     8     4     5 ar  
     9     4    29 1   
    10     5    19 ar  
    11     5    30 1   
    12     6    18 ar  
    13     6    19 ar  
    14     6    31 1   
    15     7    20 1   
    16     7    32 1   
    17     7    33 1   
    18     7    34 1   
    19     8     9 ar  
    20     8    21 ar  
    21     8    35 1   
    22     9    10 ar  
    23     9    45 1   
    24    10    11 ar  
    25    10    39 1   
    26    11    12 ar  
    27    11    40 1   
    28    12    21 ar  
    29    12    26 1   
    30    13    14 1   
    31    13    20 2   
    32    13    26 1   
    33    14    15 2   
    34    14    25 1   
    35    15    17 1   
    36    16    17 1   
    37    16    23 1   
    38    16    27 2   
    39    17    24 2   
    40    18    25 1   
    41    19    41 1   
    42    20    21 1   
    43    22    42 1   
    44    22    43 1   
    45    23    44 1   
    46    24    25 1   
    47    36    45 1   
    48    37    45 1   
    49    38    45 1   
@<TRIPOS>SUBSTRUCTURE
     1 AXU         1 TEMP              0 ****  ****    0 ROOT
