@<TRIPOS>MOLECULE
AXU
   45    49     1     0     0
SMALL
No Charge or Current Charge


@<TRIPOS>ATOM
      1 C10         -2.1410    -2.4190     0.3130 cc         1 AXU       0.628800
      2 N12         -3.3020    -3.0230     0.4890 nd         1 AXU      -0.530300
      3 C20         -0.0540     2.3770     1.1290 ca         1 AXU      -0.089500
      4 C21          0.6440     3.5670     1.4020 ca         1 AXU      -0.103500
      5 C22          0.5410     4.6600     0.5260 ca         1 AXU      -0.099000
      6 C24         -0.9660     3.3800    -0.8940 ca         1 AXU      -0.089500
      7 C26          1.4250     1.3830    -1.8330 c3         1 AXU      -0.030900
      8 C28          4.0390    -0.2110    -0.8070 ca         1 AXU      -0.056000
      9 C02          5.0260    -1.1010    -0.3200 ca         1 AXU      -0.095300
     10 C03          4.6510    -2.2090     0.4840 ca         1 AXU      -0.085000
     11 C04          3.2950    -2.4390     0.8040 ca         1 AXU      -0.102000
     12 C05          2.3550    -1.5360     0.3010 ca         1 AXU       0.064100
     13 C07          0.4790    -0.4610    -0.1720 cd         1 AXU       0.059900
     14 C08         -0.9470    -0.1490    -0.1320 cd         1 AXU      -0.056800
     15 C09         -2.0130    -0.9970     0.1090 cc         1 AXU      -0.234900
     16 C14         -4.5190    -0.8460     0.2600 c          1 AXU       0.476500
     17 C16         -3.1800    -0.2080     0.0540 cc         1 AXU       0.198500
     18 C19         -0.8440     2.2650    -0.0370 ca         1 AXU      -0.011200
     19 C23         -0.2690     4.5690    -0.6180 ca         1 AXU      -0.103500
     20 C25          1.4880     0.2640    -0.8260 cc         1 AXU      -0.079400
     21 C27          2.6990    -0.4600    -0.4750 ca         1 AXU      -0.123800
     22 N11         -1.1030    -3.2540     0.2830 nv         1 AXU      -0.979200
     23 N13         -4.4350    -2.2190     0.4660 ns         1 AXU      -0.239900
     24 N17         -2.9550     1.0760    -0.1620 nd         1 AXU      -0.429800
     25 N18         -1.5790     1.1050    -0.3110 na         1 AXU       0.263000
     26 O06          1.0120    -1.5470     0.4720 os         1 AXU      -0.145200
     27 O15         -5.5970    -0.2610     0.2530 o          1 AXU      -0.529000
     28 H1           0.0220     1.5440     1.8250 ha         1 AXU       0.137000
     29 H2           1.2600     3.6420     2.2950 ha         1 AXU       0.123000
     30 H3           1.0800     5.5810     0.7400 ha         1 AXU       0.120000
     31 H4          -1.5980     3.3200    -1.7780 ha         1 AXU       0.137000
     32 H5           1.6310     2.3510    -1.3620 hc         1 AXU       0.050367
     33 H6           2.1750     1.2370    -2.6180 hc         1 AXU       0.050367
     34 H7           0.4500     1.4240    -2.3310 hc         1 AXU       0.050367
     35 H8           4.3110     0.6460    -1.4200 ha         1 AXU       0.120000
     36 H9           6.9740    -0.2580     0.1220 hc         1 AXU       0.043700
     37 H10          7.0420    -1.8110    -0.7270 hc         1 AXU       0.043700
     38 H11          6.6070    -0.3430    -1.6090 hc         1 AXU       0.043700
     39 H12          5.4110    -2.8900     0.8610 ha         1 AXU       0.118000
     40 H13          2.9920    -3.2820     1.4200 ha         1 AXU       0.137000
     41 H14         -0.3600     5.4210    -1.2890 ha         1 AXU       0.123000
     42 H15         -1.3150    -4.2340     0.1430 hn         1 AXU       0.460000
     43 H16         -0.2250    -2.8990    -0.0710 hn         1 AXU       0.460000
     44 H17         -5.3370    -2.6720     0.6050 hn         1 AXU       0.350500
     45 C01          6.4920    -0.8660    -0.6520 c3         1 AXU      -0.045800
@<TRIPOS>BOND
     1     1     2 2   
     2     1    15 1   
     3     1    22 1   
     4     2    23 1   
     5     3     4 ar  
     6     3    18 ar  
     7     3    28 1   
     8     4     5 ar  
     9     4    29 1   
    10     5    19 ar  
    11     5    30 1   
    12     6    18 ar  
    13     6    19 ar  
    14     6    31 1   
    15     7    20 1   
    16     7    32 1   
    17     7    33 1   
    18     7    34 1   
    19     8     9 ar  
    20     8    21 ar  
    21     8    35 1   
    22     9    10 ar  
    23     9    45 1   
    24    10    11 ar  
    25    10    39 1   
    26    11    12 ar  
    27    11    40 1   
    28    12    21 ar  
    29    12    26 1   
    30    13    14 1   
    31    13    20 2   
    32    13    26 1   
    33    14    15 2   
    34    14    25 1   
    35    15    17 1   
    36    16    17 1   
    37    16    23 1   
    38    16    27 2   
    39    17    24 2   
    40    18    25 1   
    41    19    41 1   
    42    20    21 1   
    43    22    42 1   
    44    22    43 1   
    45    23    44 1   
    46    24    25 1   
    47    36    45 1   
    48    37    45 1   
    49    38    45 1   
@<TRIPOS>SUBSTRUCTURE
     1 AXU         1 TEMP              0 ****  ****    0 ROOT
