@<TRIPOS>MOLECULE
AXV
   18    19     1     0     0
SMALL
abcg2


@<TRIPOS>ATOM
      1 N1           0.6100     0.7400     0.0450 na         1 AXV      -0.335600
      2 N3           2.4380    -0.8030     0.0460 nu         1 AXV      -0.700000
      3 C4          -1.0130    -0.7510     0.0150 ca         1 AXV       0.091400
      4 C5          -0.7630     0.6310     0.0300 ca         1 AXV      -0.076200
      5 C6          -1.7750     1.5770     0.0280 ca         1 AXV      -0.109000
      6 C7           1.0870    -0.5260     0.0370 cc         1 AXV       0.651700
      7 C8           3.3710     0.1310     0.0460 c1         1 AXV       0.439800
      8 C1          -3.0760     1.0950     0.0100 ca         1 AXV      -0.097000
      9 C2          -3.3450    -0.2790    -0.0050 ca         1 AXV      -0.126000
     10 C3          -2.3240    -1.2170    -0.0030 ca         1 AXV      -0.057000
     11 N2           0.1770    -1.4490     0.0200 nd         1 AXV      -0.616100
     12 N4           4.1810     0.9540     0.0490 n1         1 AXV      -0.471000
     13 H1           1.1410     1.5970     0.0610 hn         1 AXV       0.369000
     14 H2           2.7180    -1.7750     0.0370 hn         1 AXV       0.553000
     15 H3          -1.5670     2.6390     0.0390 ha         1 AXV       0.120000
     16 H4          -3.8990     1.7970     0.0070 ha         1 AXV       0.115000
     17 H5          -4.3740    -0.6140    -0.0190 ha         1 AXV       0.116000
     18 H6          -2.5350    -2.2780    -0.0150 ha         1 AXV       0.130000
@<TRIPOS>BOND
     1     1     4 1   
     2     1     6 1   
     3     1    13 1   
     4     2     6 1   
     5     2     7 1   
     6     2    14 1   
     7     3     4 ar  
     8     3    10 ar  
     9     3    11 1   
    10     4     5 ar  
    11     5     8 ar  
    12     5    15 1   
    13     6    11 2   
    14     7    12 3   
    15     8     9 ar  
    16     8    16 1   
    17     9    10 ar  
    18     9    17 1   
    19    10    18 1   
@<TRIPOS>SUBSTRUCTURE
     1 AXV         1 TEMP              0 ****  ****    0 ROOT
