@<TRIPOS>MOLECULE
AXV
   18    19     1     0     0
SMALL
No Charge or Current Charge


@<TRIPOS>ATOM
      1 N1           0.5830     0.7850     0.0380 na         1 AXV      -0.335600
      2 N3           2.4430    -0.7730     0.0390 nu         1 AXV      -0.700000
      3 C4          -1.0000    -0.7240     0.0130 ca         1 AXV       0.091400
      4 C5          -0.7680     0.6250     0.0260 ca         1 AXV      -0.076200
      5 C6          -1.7940     1.5770     0.0260 ca         1 AXV      -0.109000
      6 C7           1.1250    -0.4870     0.0320 cc         1 AXV       0.651700
      7 C8           3.4580     0.0810     0.0550 c1         1 AXV       0.439800
      8 C1          -3.1210     1.0990     0.0120 ca         1 AXV      -0.097000
      9 C2          -3.3780    -0.2940    -0.0020 ca         1 AXV      -0.126000
     10 C3          -2.3110    -1.2210    -0.0020 ca         1 AXV      -0.057000
     11 N2           0.1940    -1.4450     0.0160 nd         1 AXV      -0.616100
     12 N4           4.3130     0.8650     0.0680 n1         1 AXV      -0.471000
     13 H1           1.1060     1.6490     0.0500 hn         1 AXV       0.369000
     14 H2           2.6330    -1.7690     0.0330 hn         1 AXV       0.553000
     15 H3          -1.5780     2.6430     0.0370 ha         1 AXV       0.120000
     16 H4          -3.9500     1.8040     0.0110 ha         1 AXV       0.115000
     17 H5          -4.4050    -0.6540    -0.0130 ha         1 AXV       0.116000
     18 H6          -2.4980    -2.2910    -0.0120 ha         1 AXV       0.130000
@<TRIPOS>BOND
     1     1     4 1   
     2     1     6 1   
     3     1    13 1   
     4     2     6 1   
     5     2     7 1   
     6     2    14 1   
     7     3     4 ar  
     8     3    10 ar  
     9     3    11 1   
    10     4     5 ar  
    11     5     8 ar  
    12     5    15 1   
    13     6    11 2   
    14     7    12 3   
    15     8     9 ar  
    16     8    16 1   
    17     9    10 ar  
    18     9    17 1   
    19    10    18 1   
@<TRIPOS>SUBSTRUCTURE
     1 AXV         1 TEMP              0 ****  ****    0 ROOT
