@<TRIPOS>MOLECULE
AXW
   53    55     1     0     0
SMALL
bcc


@<TRIPOS>ATOM
      1 F22         -1.7520    -0.7630    -1.7800 f          1 AXW      -0.145900
      2 C22         -2.6120    -1.1590    -0.8220 ca         1 AXW       0.133900
      3 C23         -2.5430    -2.4660    -0.3830 ca         1 AXW      -0.171000
      4 C24         -3.4210    -2.8800     0.6100 ca         1 AXW      -0.103000
      5 C25         -4.3410    -1.9860     1.1410 ca         1 AXW      -0.146000
      6 C26         -4.3780    -0.6780     0.6780 ca         1 AXW      -0.086000
      7 C21         -3.5150    -0.2320    -0.3190 ca         1 AXW      -0.123300
      8 C13         -3.5080     1.2020    -0.7750 c3         1 AXW       0.212100
      9 N12         -2.4690     1.9320    -0.0680 n7         1 AXW      -0.807200
     10 C11         -2.2360     3.2710    -0.5740 c3         1 AXW       0.150800
     11 C10         -1.0170     3.8630     0.1070 c3         1 AXW       0.136400
     12 O09          0.1000     3.0550    -0.1960 os         1 AXW      -0.420600
     13 C4           1.0560     2.8930     0.8280 c5         1 AXW       0.120100
     14 C5           2.1410     4.0010     0.8020 c5         1 AXW       0.108800
     15 N1           3.4320     3.3670     0.5370 n7         1 AXW      -0.773200
     16 C2           3.1160     2.0960    -0.1030 c5         1 AXW       0.143800
     17 C3           1.8530     1.5950     0.6010 c5         1 AXW      -0.085700
     18 C08          1.0690     0.4880    -0.1000 c3         1 AXW      -0.107700
     19 C06          1.7470    -0.8510    -0.0490 ca         1 AXW       0.465600
     20 N01          2.8830    -0.9820    -0.7350 nb         1 AXW      -0.752000
     21 C02          3.5140    -2.1510    -0.7080 ca         1 AXW       0.668200
     22 N02          4.7050    -2.2270    -1.3700 nv         1 AXW      -0.950500
     23 C03          3.0130    -3.2610    -0.0050 ca         1 AXW      -0.318300
     24 C05          1.1910    -1.8880     0.6810 ca         1 AXW      -0.302300
     25 C04          1.8340    -3.1300     0.7000 ca         1 AXW      -0.000300
     26 C07          1.2590    -4.2740     1.4770 c3         1 AXW      -0.052800
     27 H1          -1.8170    -3.1440    -0.8110 ha         1 AXW       0.151000
     28 H2          -3.3810    -3.9010     0.9650 ha         1 AXW       0.134000
     29 H3          -5.0260    -2.3060     1.9140 ha         1 AXW       0.136000
     30 H4          -5.0940     0.0190     1.0980 ha         1 AXW       0.137000
     31 H5          -3.3970     1.2550    -1.8680 h1         1 AXW       0.042200
     32 H6          -4.4780     1.6490    -0.5440 h1         1 AXW       0.042200
     33 H7          -1.6010     1.4230    -0.1640 hn         1 AXW       0.368800
     34 H9          -2.1010     3.2970    -1.6670 h1         1 AXW       0.039200
     35 H10         -3.0980     3.9050    -0.3520 h1         1 AXW       0.039200
     36 H11         -0.8630     4.8960    -0.2300 h1         1 AXW       0.035700
     37 H12         -1.1890     3.8940     1.1900 h1         1 AXW       0.035700
     38 H13          0.5420     2.8610     1.7980 h1         1 AXW       0.040700
     39 H14          1.8990     4.7070     0.0020 h1         1 AXW       0.055200
     40 H15          2.1810     4.5700     1.7320 h1         1 AXW       0.055200
     41 H16          3.8830     3.1690     1.4210 hn         1 AXW       0.338800
     42 H18          2.9140     2.2590    -1.1690 h1         1 AXW       0.070200
     43 H19          3.9540     1.4060    -0.0350 h1         1 AXW       0.070200
     44 H20          2.1520     1.2320     1.5920 hc         1 AXW       0.048700
     45 H21          0.0890     0.3830     0.3720 hc         1 AXW       0.063700
     46 H22          0.8940     0.7600    -1.1440 hc         1 AXW       0.063700
     47 H23          4.8760    -1.5190    -2.0650 hn         1 AXW       0.414800
     48 H24          5.0540    -3.1390    -1.6110 hn         1 AXW       0.414800
     49 H25          3.5450    -4.2050    -0.0270 ha         1 AXW       0.135000
     50 H26          0.2610    -1.7390     1.2140 ha         1 AXW       0.141000
     51 H27          1.4520    -4.1480     2.5440 hc         1 AXW       0.045033
     52 H28          0.1770    -4.3310     1.3540 hc         1 AXW       0.045033
     53 H29          1.6900    -5.2270     1.1730 hc         1 AXW       0.045033
@<TRIPOS>BOND
     1     1     2 1   
     2     2     3 ar  
     3     2     7 ar  
     4     3     4 ar  
     5     3    27 1   
     6     4     5 ar  
     7     4    28 1   
     8     5     6 ar  
     9     5    29 1   
    10     6     7 ar  
    11     6    30 1   
    12     7     8 1   
    13     8     9 1   
    14     8    31 1   
    15     8    32 1   
    16     9    10 1   
    17     9    33 1   
    18    10    11 1   
    19    10    34 1   
    20    10    35 1   
    21    11    12 1   
    22    11    36 1   
    23    11    37 1   
    24    12    13 1   
    25    13    14 1   
    26    13    17 1   
    27    13    38 1   
    28    14    15 1   
    29    14    39 1   
    30    14    40 1   
    31    15    16 1   
    32    15    41 1   
    33    16    17 1   
    34    16    42 1   
    35    16    43 1   
    36    17    18 1   
    37    17    44 1   
    38    18    19 1   
    39    18    45 1   
    40    18    46 1   
    41    19    20 ar  
    42    19    24 ar  
    43    20    21 ar  
    44    21    22 1   
    45    21    23 ar  
    46    22    47 1   
    47    22    48 1   
    48    23    25 ar  
    49    23    49 1   
    50    24    25 ar  
    51    24    50 1   
    52    25    26 1   
    53    26    51 1   
    54    26    52 1   
    55    26    53 1   
@<TRIPOS>SUBSTRUCTURE
     1 AXW         1 TEMP              0 ****  ****    0 ROOT
