@<TRIPOS>MOLECULE
AXW
   53    55     1     0     0
SMALL
No Charge or Current Charge


@<TRIPOS>ATOM
      1 F22         -1.8480    -0.6740    -1.9990 f          1 AXW      -0.181000
      2 C22         -3.0850    -0.9280    -1.5150 ca         1 AXW       0.169000
      3 C23         -3.4720    -2.2610    -1.2970 ca         1 AXW      -0.153000
      4 C24         -4.7510    -2.5490    -0.7910 ca         1 AXW      -0.085000
      5 C25         -5.6400    -1.4990    -0.5040 ca         1 AXW      -0.128000
      6 C26         -5.2530    -0.1640    -0.7210 ca         1 AXW      -0.068000
      7 C21         -3.9720     0.1320    -1.2310 ca         1 AXW      -0.123300
      8 C13         -3.5590     1.5770    -1.4670 c3         1 AXW       0.212100
      9 N12         -2.7380     2.0550    -0.3450 n7         1 AXW      -0.862400
     10 C11         -2.1800     3.4170    -0.4950 c3         1 AXW       0.150800
     11 C10         -1.0680     3.6720     0.5530 c3         1 AXW       0.159600
     12 O09         -0.0700     2.6350     0.4060 os         1 AXW      -0.467000
     13 C4           1.0230     2.6150     1.3610 c5         1 AXW       0.143300
     14 C5           2.0120     3.7990     1.0470 c5         1 AXW       0.108800
     15 N1           3.2740     3.1810     0.5440 n7         1 AXW      -0.828400
     16 C2           2.8270     1.8890    -0.0290 c5         1 AXW       0.143800
     17 C3           1.8940     1.3500     1.0830 c5         1 AXW      -0.085700
     18 C08          1.1240     0.0460     0.7290 c3         1 AXW      -0.107700
     19 C06          2.0250    -1.1730     0.5880 ca         1 AXW       0.400300
     20 N01          2.3810    -1.5260    -0.6670 nb         1 AXW      -0.752000
     21 C02          3.1760    -2.5780    -0.7900 ca         1 AXW       0.602900
     22 N02          3.4480    -2.8280    -2.0720 nv         1 AXW      -1.060900
     23 C03          3.6650    -3.3470     0.2670 ca         1 AXW      -0.235000
     24 C05          2.4640    -1.8740     1.7280 ca         1 AXW      -0.219000
     25 C04          3.3010    -2.9910     1.5740 ca         1 AXW      -0.000300
     26 C07          3.8000    -3.7750     2.7760 c3         1 AXW      -0.052800
     27 H1          -2.7780    -3.0680    -1.5200 ha         1 AXW       0.133000
     28 H2          -5.0520    -3.5800    -0.6210 ha         1 AXW       0.116000
     29 H3          -6.6300    -1.7180    -0.1100 ha         1 AXW       0.118000
     30 H4          -5.9480     0.6410    -0.4920 ha         1 AXW       0.119000
     31 H5          -2.9990     1.6400    -2.4110 h1         1 AXW       0.042200
     32 H6          -4.4570     2.2010    -1.5790 h1         1 AXW       0.042200
     33 H7          -1.9260     1.4290    -0.2720 hn         1 AXW       0.424000
     34 H9          -1.7370     3.5420    -1.4940 h1         1 AXW       0.039200
     35 H10         -2.9670     4.1750    -0.3850 h1         1 AXW       0.039200
     36 H11         -0.6370     4.6680     0.3900 h1         1 AXW       0.035700
     37 H12         -1.5060     3.6470     1.5600 h1         1 AXW       0.035700
     38 H13          0.6240     2.6370     2.3840 h1         1 AXW       0.040700
     39 H14          1.5930     4.4650     0.2800 h1         1 AXW       0.055200
     40 H15          2.2040     4.4120     1.9390 h1         1 AXW       0.055200
     41 H16          3.8730     2.9700     1.3510 hn         1 AXW       0.394000
     42 H18          2.2820     2.0370    -0.9730 h1         1 AXW       0.070200
     43 H19          3.6720     1.2140    -0.2290 h1         1 AXW       0.070200
     44 H20          2.4830     1.1190     1.9790 hc         1 AXW       0.048700
     45 H21          0.3780    -0.1540     1.5070 hc         1 AXW       0.063700
     46 H22          0.5510     0.1870    -0.1950 hc         1 AXW       0.063700
     47 H23          2.8460    -2.3490    -2.7290 hn         1 AXW       0.470000
     48 H24          3.7290    -3.7700    -2.3170 hn         1 AXW       0.470000
     49 H25          4.3130    -4.1970     0.0780 ha         1 AXW       0.117000
     50 H26          2.1550    -1.5480     2.7170 ha         1 AXW       0.123000
     51 H27          4.7270    -3.3400     3.1680 hc         1 AXW       0.045033
     52 H28          3.0610    -3.7760     3.5860 hc         1 AXW       0.045033
     53 H29          4.0050    -4.8200     2.5150 hc         1 AXW       0.045033
@<TRIPOS>BOND
     1     1     2 1   
     2     2     3 ar  
     3     2     7 ar  
     4     3     4 ar  
     5     3    27 1   
     6     4     5 ar  
     7     4    28 1   
     8     5     6 ar  
     9     5    29 1   
    10     6     7 ar  
    11     6    30 1   
    12     7     8 1   
    13     8     9 1   
    14     8    31 1   
    15     8    32 1   
    16     9    10 1   
    17     9    33 1   
    18    10    11 1   
    19    10    34 1   
    20    10    35 1   
    21    11    12 1   
    22    11    36 1   
    23    11    37 1   
    24    12    13 1   
    25    13    14 1   
    26    13    17 1   
    27    13    38 1   
    28    14    15 1   
    29    14    39 1   
    30    14    40 1   
    31    15    16 1   
    32    15    41 1   
    33    16    17 1   
    34    16    42 1   
    35    16    43 1   
    36    17    18 1   
    37    17    44 1   
    38    18    19 1   
    39    18    45 1   
    40    18    46 1   
    41    19    20 ar  
    42    19    24 ar  
    43    20    21 ar  
    44    21    22 1   
    45    21    23 ar  
    46    22    47 1   
    47    22    48 1   
    48    23    25 ar  
    49    23    49 1   
    50    24    25 ar  
    51    24    50 1   
    52    25    26 1   
    53    26    51 1   
    54    26    52 1   
    55    26    53 1   
@<TRIPOS>SUBSTRUCTURE
     1 AXW         1 TEMP              0 ****  ****    0 ROOT
