@<TRIPOS>MOLECULE
AXX
   34    36     1     0     0
SMALL
abcg2


@<TRIPOS>ATOM
      1 O5          19.1340    -9.0670    -3.5810 o          1 AXX      -0.595100
      2 C4          19.6930    -9.6320    -2.6410 c          1 AXX       0.634100
      3 C2          19.1030    -9.7540    -1.2880 cx         1 AXX      -0.241700
      4 C3          17.5990    -9.9140    -1.1830 cx         1 AXX      -0.093900
      5 C1          18.2270    -8.6220    -0.7890 cx         1 AXX      -0.093900
      6 N6          20.9240   -10.2040    -2.7740 ns         1 AXX      -0.380100
      7 C7          21.6850   -10.2470    -3.9210 cc         1 AXX       0.011600
      8 S11         21.1440    -9.6070    -5.4330 ss         1 AXX       0.283000
      9 C10         22.6170   -10.1010    -6.2130 cc         1 AXX      -0.249300
     10 C18         22.8340    -9.8660    -7.6780 c6         1 AXX       0.002900
     11 C17         24.3060   -10.0830    -8.0360 c6         1 AXX      -0.071400
     12 C16         24.8320   -11.3590    -7.3830 c6         1 AXX      -0.072400
     13 C15         24.7940   -11.2640    -5.8540 c6         1 AXX      -0.016100
     14 C9          23.4810   -10.7130    -5.3560 cd         1 AXX      -0.049300
     15 C8          22.9590   -10.7910    -4.0070 cd         1 AXX      -0.265600
     16 C12         23.6170   -11.3290    -2.8000 c          1 AXX       0.647700
     17 O13         22.9740   -11.5800    -1.7620 o          1 AXX      -0.668100
     18 N14         24.9480   -11.5390    -2.8310 nt         1 AXX      -0.593000
     19 H2          19.7070   -10.2700    -0.5540 hc         1 AXX       0.098700
     20 H31         17.0550    -9.9440    -2.1170 hc         1 AXX       0.083950
     21 H32         17.2380   -10.5750    -0.4080 hc         1 AXX       0.083950
     22 H11         18.3050    -8.3810     0.2620 hc         1 AXX       0.083950
     23 H12         18.1070    -7.7800    -1.4570 hc         1 AXX       0.083950
     24 HN6         21.3640   -10.6910    -1.9920 hn         1 AXX       0.376500
     25 H181        22.2080   -10.5520    -8.2600 hc         1 AXX       0.050700
     26 H182        22.5180    -8.8560    -7.9520 hc         1 AXX       0.050700
     27 H171        24.4170   -10.1310    -9.1210 hc         1 AXX       0.043700
     28 H172        24.8960    -9.2290    -7.6870 hc         1 AXX       0.043700
     29 H161        24.2200   -12.2070    -7.7070 hc         1 AXX       0.044200
     30 H162        25.8550   -11.5620    -7.7060 hc         1 AXX       0.044200
     31 H151        24.9740   -12.2520    -5.4250 hc         1 AXX       0.045200
     32 H152        25.6180   -10.6200    -5.5220 hc         1 AXX       0.045200
     33 H141        25.3970   -11.8580    -1.9860 hn         1 AXX       0.317000
     34 H142        25.5300   -11.2360    -3.5910 hn         1 AXX       0.317000
@<TRIPOS>BOND
     1     1     2 2   
     2     2     3 1   
     3     2     6 1   
     4     3     4 1   
     5     3     5 1   
     6     3    19 1   
     7     4     5 1   
     8     4    20 1   
     9     4    21 1   
    10     5    22 1   
    11     5    23 1   
    12     6     7 1   
    13     6    24 1   
    14     7     8 1   
    15     7    15 2   
    16     8     9 1   
    17     9    10 1   
    18     9    14 2   
    19    10    11 1   
    20    10    25 1   
    21    10    26 1   
    22    11    12 1   
    23    11    27 1   
    24    11    28 1   
    25    12    13 1   
    26    12    29 1   
    27    12    30 1   
    28    13    14 1   
    29    13    31 1   
    30    13    32 1   
    31    14    15 1   
    32    15    16 1   
    33    16    17 2   
    34    16    18 1   
    35    18    33 1   
    36    18    34 1   
@<TRIPOS>SUBSTRUCTURE
     1 AXX         1 TEMP              0 ****  ****    0 ROOT
