@<TRIPOS>MOLECULE
AXX
   34    36     1     0     0
SMALL
No Charge or Current Charge


@<TRIPOS>ATOM
      1 O5          18.4800    -9.8530    -3.8850 o          1 AXX      -0.595100
      2 C4          19.2000   -10.1330    -2.9380 c          1 AXX       0.634100
      3 C2          18.6780   -10.2170    -1.5250 cx         1 AXX      -0.241700
      4 C3          17.8520    -9.0680    -0.9800 cx         1 AXX      -0.093900
      5 C1          19.2570    -9.2910    -0.4720 cx         1 AXX      -0.093900
      6 N6          20.5440   -10.4100    -3.0420 ns         1 AXX      -0.380100
      7 C7          21.3640   -10.4300    -4.1660 cc         1 AXX       0.011600
      8 S11         20.8430   -10.0850    -5.8160 ss         1 AXX       0.283000
      9 C10         22.4700   -10.3340    -6.4100 cc         1 AXX      -0.249300
     10 C18         22.8410   -10.1930    -7.8690 c6         1 AXX       0.002900
     11 C17         24.3690   -10.0470    -8.0380 c6         1 AXX      -0.071400
     12 C16         25.1020   -11.1270    -7.2160 c6         1 AXX      -0.072400
     13 C15         24.8100   -10.9780    -5.7020 c6         1 AXX      -0.016100
     14 C9          23.3410   -10.6850    -5.4000 cd         1 AXX      -0.049300
     15 C8          22.7210   -10.7200    -4.0890 cd         1 AXX      -0.265600
     16 C12         23.3700   -11.0110    -2.7590 c          1 AXX       0.647700
     17 O13         22.7730   -11.0740    -1.6950 o          1 AXX      -0.668100
     18 N14         24.7000   -11.1950    -2.7410 nt         1 AXX      -0.593000
     19 H2          18.3970   -11.2170    -1.2040 hc         1 AXX       0.098700
     20 H31         17.6780    -8.2080    -1.6230 hc         1 AXX       0.083950
     21 H32         17.0280    -9.3060    -0.3120 hc         1 AXX       0.083950
     22 H11         19.3750    -9.6790     0.5370 hc         1 AXX       0.083950
     23 H12         20.0190    -8.5740    -0.7720 hc         1 AXX       0.083950
     24 HN6         20.9900   -10.6290    -2.1550 hn         1 AXX       0.376500
     25 H181        22.4950   -11.0720    -8.4290 hc         1 AXX       0.050700
     26 H182        22.3380    -9.3260    -8.3200 hc         1 AXX       0.050700
     27 H171        24.6370   -10.1300    -9.1000 hc         1 AXX       0.043700
     28 H172        24.6880    -9.0490    -7.7080 hc         1 AXX       0.043700
     29 H161        24.7840   -12.1230    -7.5570 hc         1 AXX       0.044200
     30 H162        26.1850   -11.0700    -7.3950 hc         1 AXX       0.044200
     31 H151        25.1310   -11.9080    -5.2130 hc         1 AXX       0.045200
     32 H152        25.4360   -10.1690    -5.3010 hc         1 AXX       0.045200
     33 H141        25.1560   -11.3820    -1.8620 hn         1 AXX       0.317000
     34 H142        25.2290   -11.1230    -3.5930 hn         1 AXX       0.317000
@<TRIPOS>BOND
     1     1     2 2   
     2     2     3 1   
     3     2     6 1   
     4     3     4 1   
     5     3     5 1   
     6     3    19 1   
     7     4     5 1   
     8     4    20 1   
     9     4    21 1   
    10     5    22 1   
    11     5    23 1   
    12     6     7 1   
    13     6    24 1   
    14     7     8 1   
    15     7    15 2   
    16     8     9 1   
    17     9    10 1   
    18     9    14 2   
    19    10    11 1   
    20    10    25 1   
    21    10    26 1   
    22    11    12 1   
    23    11    27 1   
    24    11    28 1   
    25    12    13 1   
    26    12    29 1   
    27    12    30 1   
    28    13    14 1   
    29    13    31 1   
    30    13    32 1   
    31    14    15 1   
    32    15    16 1   
    33    16    17 2   
    34    16    18 1   
    35    18    33 1   
    36    18    34 1   
@<TRIPOS>SUBSTRUCTURE
     1 AXX         1 TEMP              0 ****  ****    0 ROOT
