@<TRIPOS>MOLECULE
AXY
   51    54     1     0     0
SMALL
No Charge or Current Charge


@<TRIPOS>ATOM
      1 CAK          5.1320    -2.4570    -0.7310 ca         1 AXY      -0.105500
      2 CAE          6.0320    -3.5330    -0.6390 ca         1 AXY      -0.115000
      3 CAC          7.0190    -3.5400     0.3590 ca         1 AXY      -0.123000
      4 CAF          7.1040    -2.4710     1.2650 ca         1 AXY      -0.115000
      5 CAL          6.2030    -1.3970     1.1730 ca         1 AXY      -0.105500
      6 CAZ          5.1970    -1.3660     0.1730 cp         1 AXY      -0.008000
      7 CBB          4.2360    -0.2200     0.0750 cp         1 AXY      -0.069000
      8 CAR          3.7750     0.4520     1.2340 ca         1 AXY      -0.102000
      9 CAJ          2.8720     1.5260     1.1430 ca         1 AXY      -0.109000
     10 CAQ          3.7560     0.2300    -1.1810 ca         1 AXY      -0.102000
     11 CAI          2.8550     1.3040    -1.2740 ca         1 AXY      -0.109000
     12 CAX          2.4060     1.9590    -0.1120 ca         1 AXY      -0.040300
     13 CAU          1.4250     3.1230    -0.2070 c3         1 AXY      -0.027100
     14 CBD         -0.0140     2.7320     0.2060 c3         1 AXY       0.022300
     15 CAW         -0.9500     3.9880     0.2080 c          1 AXY       0.703000
     16 OAB         -1.7870     4.1220    -0.6760 o          1 AXY      -0.706000
     17 OAA         -0.8390     4.7760     1.1380 o          1 AXY      -0.706000
     18 OAV         -0.4460     1.6900    -0.7090 os         1 AXY      -0.333100
     19 CAY         -1.5710     0.9170    -0.4930 ca         1 AXY       0.223100
     20 CAP         -1.9300    -0.0050    -1.4870 ca         1 AXY      -0.182000
     21 CAT         -3.0560    -0.8290    -1.3240 ca         1 AXY      -0.059500
     22 CAO         -2.3490     1.0060     0.6800 ca         1 AXY      -0.182000
     23 CAS         -3.4760     0.1800     0.8430 ca         1 AXY      -0.059500
     24 CBC         -3.8530    -0.7540    -0.1550 cp         1 AXY      -0.129000
     25 CBA         -5.0540    -1.6330     0.0220 cp         1 AXY       0.015000
     26 CAM         -5.4200    -2.1270     1.3000 ca         1 AXY      -0.113500
     27 CAG         -6.5460    -2.9530     1.4650 ca         1 AXY      -0.115000
     28 CAD         -7.3320    -3.3000     0.3560 ca         1 AXY      -0.133000
     29 CAH         -6.9900    -2.8230    -0.9190 ca         1 AXY      -0.115000
     30 CAN         -5.8640    -1.9990    -1.0840 ca         1 AXY      -0.113500
     31 H1           4.3670    -2.4780    -1.5030 ha         1 AXY       0.115500
     32 H2           5.9620    -4.3620    -1.3400 ha         1 AXY       0.104000
     33 H3           7.7160    -4.3720     0.4310 ha         1 AXY       0.102000
     34 H4           7.8700    -2.4730     2.0380 ha         1 AXY       0.104000
     35 H5           6.2940    -0.5730     1.8760 ha         1 AXY       0.115500
     36 H6           4.1060     0.1310     2.2180 ha         1 AXY       0.101500
     37 H7           2.5320     2.0200     2.0500 ha         1 AXY       0.118500
     38 H8           4.0940    -0.2490    -2.0960 ha         1 AXY       0.101500
     39 H9           2.5030     1.6260    -2.2510 ha         1 AXY       0.118500
     40 H10          1.7690     3.9400     0.4390 hc         1 AXY       0.067200
     41 H11          1.4060     3.5330    -1.2240 hc         1 AXY       0.067200
     42 H12          0.0280     2.3430     1.2320 h1         1 AXY       0.030700
     43 H14         -1.3280    -0.0830    -2.3880 ha         1 AXY       0.125500
     44 H15         -3.3020    -1.5430    -2.1070 ha         1 AXY       0.096500
     45 H16         -2.1000     1.7050     1.4720 ha         1 AXY       0.125500
     46 H17         -4.0680     0.2770     1.7500 ha         1 AXY       0.096500
     47 H18         -4.8170    -1.8810     2.1700 ha         1 AXY       0.113500
     48 H19         -6.8060    -3.3240     2.4540 ha         1 AXY       0.100000
     49 H20         -8.2030    -3.9390     0.4840 ha         1 AXY       0.098000
     50 H21         -7.6000    -3.0890    -1.7800 ha         1 AXY       0.100000
     51 H22         -5.6250    -1.6290    -2.0780 ha         1 AXY       0.113500
@<TRIPOS>BOND
     1     1     2 ar  
     2     1     6 ar  
     3     1    31 1   
     4     2     3 ar  
     5     2    32 1   
     6     3     4 ar  
     7     3    33 1   
     8     4     5 ar  
     9     4    34 1   
    10     5     6 ar  
    11     5    35 1   
    12     6     7 1   
    13     7     8 ar  
    14     7    10 ar  
    15     8     9 ar  
    16     8    36 1   
    17     9    12 ar  
    18     9    37 1   
    19    10    11 ar  
    20    10    38 1   
    21    11    12 ar  
    22    11    39 1   
    23    12    13 1   
    24    13    14 1   
    25    13    40 1   
    26    13    41 1   
    27    14    15 1   
    28    14    18 1   
    29    14    42 1   
    30    15    16 1   
    31    15    17 1   
    32    18    19 1   
    33    19    20 ar  
    34    19    22 ar  
    35    20    21 ar  
    36    20    43 1   
    37    21    24 ar  
    38    21    44 1   
    39    22    23 ar  
    40    22    45 1   
    41    23    24 ar  
    42    23    46 1   
    43    24    25 1   
    44    25    26 ar  
    45    25    30 ar  
    46    26    27 ar  
    47    26    47 1   
    48    27    28 ar  
    49    27    48 1   
    50    28    29 ar  
    51    28    49 1   
    52    29    30 ar  
    53    29    50 1   
    54    30    51 1   
@<TRIPOS>SUBSTRUCTURE
     1 AXY         1 TEMP              0 ****  ****    0 ROOT
