@<TRIPOS>MOLECULE
AXY
   51    54     1     0     0
SMALL
bcc


@<TRIPOS>ATOM
      1 CAK          4.9310    -2.5040    -0.5840 ca         1 AXY      -0.123500
      2 CAE          5.8180    -3.5660    -0.4920 ca         1 AXY      -0.133000
      3 CAC          6.9070    -3.4960     0.3660 ca         1 AXY      -0.141000
      4 CAF          7.1010    -2.3530     1.1300 ca         1 AXY      -0.133000
      5 CAL          6.2140    -1.2900     1.0370 ca         1 AXY      -0.123500
      6 CAZ          5.1140    -1.3490     0.1790 cp         1 AXY      -0.008000
      7 CBB          4.1670    -0.2190     0.0860 cp         1 AXY      -0.069000
      8 CAR          3.8370     0.5370     1.2120 ca         1 AXY      -0.120000
      9 CAJ          2.9540     1.6000     1.1210 ca         1 AXY      -0.127000
     10 CAQ          3.5780     0.1310    -1.1300 ca         1 AXY      -0.120000
     11 CAI          2.6920     1.1940    -1.2160 ca         1 AXY      -0.127000
     12 CAX          2.3660     1.9490    -0.0930 ca         1 AXY      -0.040300
     13 CAU          1.3810     3.0790    -0.1650 c3         1 AXY      -0.027100
     14 CBD         -0.0280     2.6450     0.2370 c3         1 AXY      -0.000900
     15 CAW         -0.9910     3.8590     0.2470 c          1 AXY       0.913600
     16 OAB         -1.8180     3.9410    -0.6730 o          1 AXY      -0.811300
     17 OAA         -0.8060     4.6520     1.1900 o          1 AXY      -0.811300
     18 OAV         -0.4140     1.6470    -0.6890 os         1 AXY      -0.309900
     19 CAY         -1.5170     0.9220    -0.4620 ca         1 AXY       0.223100
     20 CAP         -1.8790     0.0190    -1.4650 ca         1 AXY      -0.200000
     21 CAT         -2.9860    -0.7940    -1.3140 ca         1 AXY      -0.077500
     22 CAO         -2.2900     0.9800     0.6970 ca         1 AXY      -0.200000
     23 CAS         -3.3960     0.1530     0.8340 ca         1 AXY      -0.077500
     24 CBC         -3.7730    -0.7470    -0.1610 cp         1 AXY      -0.129000
     25 CBA         -4.9600    -1.6100    -0.0080 cp         1 AXY       0.015000
     26 CAM         -5.3130    -2.1380     1.2360 ca         1 AXY      -0.131500
     27 CAG         -6.4320    -2.9460     1.3780 ca         1 AXY      -0.133000
     28 CAD         -7.2220    -3.2480     0.2760 ca         1 AXY      -0.151000
     29 CAH         -6.8820    -2.7320    -0.9680 ca         1 AXY      -0.133000
     30 CAN         -5.7650    -1.9210    -1.1070 ca         1 AXY      -0.131500
     31 H1           4.0740    -2.5840    -1.2420 ha         1 AXY       0.133500
     32 H2           5.6520    -4.4550    -1.0880 ha         1 AXY       0.122000
     33 H3           7.5980    -4.3260     0.4410 ha         1 AXY       0.120000
     34 H4           7.9510    -2.2830     1.7970 ha         1 AXY       0.122000
     35 H5           6.3930    -0.3980     1.6250 ha         1 AXY       0.133500
     36 H6           4.2610     0.2840     2.1760 ha         1 AXY       0.119500
     37 H7           2.7150     2.1680     2.0140 ha         1 AXY       0.136500
     38 H8           3.8270    -0.4220    -2.0290 ha         1 AXY       0.119500
     39 H9           2.2590     1.4480    -2.1750 ha         1 AXY       0.136500
     40 H10          1.6830     3.8820     0.5090 hc         1 AXY       0.067200
     41 H11          1.3560     3.5000    -1.1740 hc         1 AXY       0.067200
     42 H12          0.0260     2.2210     1.2490 h1         1 AXY       0.030700
     43 H14         -1.2790    -0.0410    -2.3640 ha         1 AXY       0.143500
     44 H15         -3.2270    -1.4930    -2.1060 ha         1 AXY       0.114500
     45 H16         -2.0610     1.6670     1.5000 ha         1 AXY       0.143500
     46 H17         -3.9890     0.2370     1.7360 ha         1 AXY       0.114500
     47 H18         -4.6970    -1.9310     2.1030 ha         1 AXY       0.131500
     48 H19         -6.6820    -3.3470     2.3520 ha         1 AXY       0.118000
     49 H20         -8.0940    -3.8790     0.3860 ha         1 AXY       0.116000
     50 H21         -7.4930    -2.9540    -1.8330 ha         1 AXY       0.118000
     51 H22         -5.5280    -1.5100    -2.0810 ha         1 AXY       0.131500
@<TRIPOS>BOND
     1     1     2 ar  
     2     1     6 ar  
     3     1    31 1   
     4     2     3 ar  
     5     2    32 1   
     6     3     4 ar  
     7     3    33 1   
     8     4     5 ar  
     9     4    34 1   
    10     5     6 ar  
    11     5    35 1   
    12     6     7 1   
    13     7     8 ar  
    14     7    10 ar  
    15     8     9 ar  
    16     8    36 1   
    17     9    12 ar  
    18     9    37 1   
    19    10    11 ar  
    20    10    38 1   
    21    11    12 ar  
    22    11    39 1   
    23    12    13 1   
    24    13    14 1   
    25    13    40 1   
    26    13    41 1   
    27    14    15 1   
    28    14    18 1   
    29    14    42 1   
    30    15    16 1   
    31    15    17 1   
    32    18    19 1   
    33    19    20 ar  
    34    19    22 ar  
    35    20    21 ar  
    36    20    43 1   
    37    21    24 ar  
    38    21    44 1   
    39    22    23 ar  
    40    22    45 1   
    41    23    24 ar  
    42    23    46 1   
    43    24    25 1   
    44    25    26 ar  
    45    25    30 ar  
    46    26    27 ar  
    47    26    47 1   
    48    27    28 ar  
    49    27    48 1   
    50    28    29 ar  
    51    28    49 1   
    52    29    30 ar  
    53    29    50 1   
    54    30    51 1   
@<TRIPOS>SUBSTRUCTURE
     1 AXY         1 TEMP              0 ****  ****    0 ROOT
