@<TRIPOS>MOLECULE
AXZ
   36    36     1     0     0
SMALL
No Charge or Current Charge


@<TRIPOS>ATOM
      1 O2S          1.5500     1.7780     0.7220 oh         1 AXZ      -0.793700
      2 S            0.7870     0.4580     1.2100 s6         1 AXZ       0.646900
      3 O1S          1.0380     0.7000     2.7700 oh         1 AXZ      -0.793700
      4 C1          -0.9410     0.3950     0.5740 ca         1 AXZ       0.042500
      5 C2          -1.9550     1.1380     1.2040 ca         1 AXZ      -0.020000
      6 C6          -1.2530    -0.3950    -0.5460 ca         1 AXZ      -0.020000
      7 C5          -2.5720    -0.4430    -1.0330 ca         1 AXZ      -0.138500
      8 C4          -3.5900     0.3000    -0.4040 ca         1 AXZ      -0.068300
      9 C3          -3.2740     1.0900     0.7180 ca         1 AXZ      -0.138500
     10 C7          -5.0190     0.2450    -0.9280 c3         1 AXZ      -0.030100
     11 N            1.8240    -0.7530     0.7240 n7         1 AXZ      -0.916200
     12 CA           3.2610    -0.5040     0.2700 c3         1 AXZ       0.023500
     13 CB           4.0390    -1.8530     0.1890 c3         1 AXZ       0.186600
     14 C            3.5010     0.3320    -1.0550 c          1 AXZ       0.732000
     15 O            2.5430     0.8650    -1.6060 o          1 AXZ      -0.712000
     16 OXT          4.6540     0.5120    -1.4280 o          1 AXZ      -0.712000
     17 O9           3.5060    -2.7190    -0.8260 oh         1 AXZ      -0.627000
     18 H2S1         1.9110     1.4700    -0.1480 ho         1 AXZ       0.451000
     19 H1S1         1.6050     1.4970     2.7190 ho         1 AXZ       0.451000
     20 H21         -1.7170     1.7510     2.0710 ha         1 AXZ       0.135000
     21 H61         -0.4720    -0.9710    -1.0370 ha         1 AXZ       0.135000
     22 H51         -2.8010    -1.0600    -1.8990 ha         1 AXZ       0.099500
     23 H31         -4.0490     1.6680     1.2150 ha         1 AXZ       0.099500
     24 H71         -5.5180     1.2070    -0.7570 hc         1 AXZ       0.047200
     25 H72         -5.0140     0.0900    -2.0140 hc         1 AXZ       0.047200
     26 H            1.8280    -1.4070     1.5090 hn         1 AXZ       0.426000
     27 HA           3.7640     0.0740     1.0580 h1         1 AXZ       0.037700
     28 HB2          5.1000    -1.6530    -0.0080 h1         1 AXZ       0.007200
     29 HB3          3.9840    -2.3510     1.1660 h1         1 AXZ       0.007200
     30 H91          3.9900    -3.5690    -0.7540 ho         1 AXZ       0.411000
     31 C8          -5.8380    -0.8770    -0.2560 c3         1 AXZ       0.147800
     32 N1          -7.2260    -0.9320    -0.7630 n8         1 AXZ      -1.003200
     33 H2          -5.3540    -1.8460    -0.4430 h1         1 AXZ       0.034200
     34 H3          -5.8660    -0.7090     0.8300 h1         1 AXZ       0.034200
     35 H4          -7.2070    -1.1770    -1.7610 hn         1 AXZ       0.386500
     36 H5          -7.7090    -1.7290    -0.3290 hn         1 AXZ       0.386500
@<TRIPOS>BOND
     1     1     2 1   
     2     1    18 1   
     3     2     3 1   
     4     2     4 1   
     5     2    11 3   
     6     3    19 1   
     7     4     5 ar  
     8     4     6 ar  
     9     5     9 ar  
    10     5    20 1   
    11     6     7 ar  
    12     6    21 1   
    13     7     8 ar  
    14     7    22 1   
    15     8     9 ar  
    16     8    10 1   
    17     9    23 1   
    18    10    24 1   
    19    10    25 1   
    20    10    31 1   
    21    11    12 1   
    22    11    26 1   
    23    12    13 1   
    24    12    14 1   
    25    12    27 1   
    26    13    17 1   
    27    13    28 1   
    28    13    29 1   
    29    14    15 1   
    30    14    16 1   
    31    17    30 1   
    32    31    32 1   
    33    31    33 1   
    34    31    34 1   
    35    32    35 1   
    36    32    36 1   
@<TRIPOS>SUBSTRUCTURE
     1 AXZ         1 TEMP              0 ****  ****    0 ROOT
