@<TRIPOS>MOLECULE
AXZ
   36    36     1     0     0
SMALL
abcg2


@<TRIPOS>ATOM
      1 O2S          1.0580     1.6480    -1.1680 oh         1 AXZ      -0.793700
      2 S            0.9170     1.0360     0.4590 s6         1 AXZ       0.646900
      3 O1S          0.5840     0.3370     2.1750 oh         1 AXZ      -0.793700
      4 C1          -0.8180     0.7550     0.1470 ca         1 AXZ       0.042500
      5 C2          -1.7560     1.3450     0.9810 ca         1 AXZ      -0.020000
      6 C6          -1.2220    -0.0020    -0.9430 ca         1 AXZ      -0.020000
      7 C5          -2.5760    -0.1890    -1.1750 ca         1 AXZ      -0.138500
      8 C4          -3.5390     0.4020    -0.3600 ca         1 AXZ      -0.068300
      9 C3          -3.1070     1.1770     0.7130 ca         1 AXZ      -0.138500
     10 C7          -5.0020     0.1740    -0.6060 c3         1 AXZ      -0.030100
     11 N            1.6650    -0.4530     0.0180 n7         1 AXZ      -0.916200
     12 CA           3.0180    -0.5880     0.5690 c3         1 AXZ       0.023500
     13 CB           3.4910    -2.0100     0.3210 c3         1 AXZ       0.186600
     14 C            4.0400     0.4160    -0.0090 c          1 AXZ       0.732000
     15 O            3.6620     1.2350    -0.8780 o          1 AXZ      -0.712000
     16 OXT          5.1830     0.3290     0.4640 o          1 AXZ      -0.712000
     17 O9           3.6560    -2.2170    -1.0620 oh         1 AXZ      -0.627000
     18 H2S1         2.0300     1.5830    -1.3040 ho         1 AXZ       0.451000
     19 H1S1         1.1730     0.8440     2.7430 ho         1 AXZ       0.451000
     20 H21         -1.4470     1.9350     1.8320 ha         1 AXZ       0.135000
     21 H61         -0.4960    -0.4520    -1.6050 ha         1 AXZ       0.135000
     22 H51         -2.8860    -0.7920    -2.0210 ha         1 AXZ       0.099500
     23 H31         -3.8340     1.6560     1.3570 ha         1 AXZ       0.099500
     24 H71         -5.5870     1.0000    -0.1940 hc         1 AXZ       0.047200
     25 H72         -5.1970     0.1490    -1.6830 hc         1 AXZ       0.047200
     26 H            1.0970    -1.1800     0.4470 hn         1 AXZ       0.426000
     27 HA           3.0130    -0.4610     1.6610 h1         1 AXZ       0.037700
     28 HB2          4.4260    -2.1510     0.8710 h1         1 AXZ       0.007200
     29 HB3          2.7630    -2.7140     0.7500 h1         1 AXZ       0.007200
     30 H91          4.0780    -3.0720    -1.1850 ho         1 AXZ       0.411000
     31 C8          -5.4840    -1.1340     0.0190 c3         1 AXZ       0.147800
     32 N1          -6.9110    -1.3080    -0.2000 n8         1 AXZ      -1.003200
     33 H2          -4.8720    -1.9600    -0.3710 h1         1 AXZ       0.034200
     34 H3          -5.3020    -1.0990     1.0960 h1         1 AXZ       0.034200
     35 H4          -7.0820    -1.4780    -1.1840 hn         1 AXZ       0.386500
     36 H5          -7.2270    -2.1410     0.2800 hn         1 AXZ       0.386500
@<TRIPOS>BOND
     1     1     2 1   
     2     1    18 1   
     3     2     3 1   
     4     2     4 1   
     5     2    11 3   
     6     3    19 1   
     7     4     5 ar  
     8     4     6 ar  
     9     5     9 ar  
    10     5    20 1   
    11     6     7 ar  
    12     6    21 1   
    13     7     8 ar  
    14     7    22 1   
    15     8     9 ar  
    16     8    10 1   
    17     9    23 1   
    18    10    24 1   
    19    10    25 1   
    20    10    31 1   
    21    11    12 1   
    22    11    26 1   
    23    12    13 1   
    24    12    14 1   
    25    12    27 1   
    26    13    17 1   
    27    13    28 1   
    28    13    29 1   
    29    14    15 1   
    30    14    16 1   
    31    17    30 1   
    32    31    32 1   
    33    31    33 1   
    34    31    34 1   
    35    32    35 1   
    36    32    36 1   
@<TRIPOS>SUBSTRUCTURE
     1 AXZ         1 TEMP              0 ****  ****    0 ROOT
