@<TRIPOS>MOLECULE
AY0
   32    33     1     0     0
SMALL
No Charge or Current Charge


@<TRIPOS>ATOM
      1 C1           2.2150     3.6040    -1.1580 c3         1 AY0       0.108300
      2 O2           3.0920     2.1500     1.1480 o          1 AY0      -0.609100
      3 O            5.6130    -1.5670     1.2800 o          1 AY0      -0.859800
      4 O4          -4.3090    -0.0340    -1.8290 o          1 AY0      -0.911833
      5 O5          -3.7770     2.2150    -1.0570 o          1 AY0      -0.911833
      6 O6          -5.5420     0.9440     0.0170 o          1 AY0      -0.911833
      7 C2          -1.1140    -0.5820     1.3280 ca         1 AY0      -0.210000
      8 C3          -1.1280     0.2290    -0.9610 ca         1 AY0      -0.210000
      9 C4           0.2540    -0.8820     1.2180 ca         1 AY0      -0.100500
     10 C5           0.2410    -0.0700    -1.0710 ca         1 AY0      -0.100500
     11 N            2.6690     2.2170    -1.0880 ns         1 AY0      -0.596900
     12 C6           3.0540     1.5820     0.0650 c          1 AY0       0.709100
     13 C            4.4380    -1.9060     1.2010 c          1 AY0       0.948600
     14 C8          -1.8160    -0.0250     0.2450 ca         1 AY0       0.282100
     15 C9           0.9430    -0.6190     0.0190 ca         1 AY0      -0.158300
     16 C10          3.4660     0.1460    -0.1400 cx         1 AY0      -0.265700
     17 C11          3.3840    -0.8280     1.0330 cx         1 AY0      -0.185700
     18 C12          2.4080    -0.9400    -0.1230 cx         1 AY0       0.007600
     19 P1          -4.2050     0.8510    -0.6350 p5         1 AY0       1.271900
     20 OXT          4.0730    -3.0690     1.3160 o          1 AY0      -0.859800
     21 H15          1.3270     3.7310    -0.5260 h1         1 AY0       0.016700
     22 H3           3.0140     4.2710    -0.8100 h1         1 AY0       0.016700
     23 H6          -1.6400    -0.7860     2.2570 ha         1 AY0       0.129000
     24 H7          -1.6420     0.6550    -1.8160 ha         1 AY0       0.129000
     25 H8           0.7730    -1.3230     2.0670 ha         1 AY0       0.089500
     26 H9           0.7580     0.1250    -2.0080 ha         1 AY0       0.089500
     27 H10          4.2920     0.0080    -0.8310 hc         1 AY0       0.074700
     28 H11          3.0030    -0.4370     1.9710 hc         1 AY0       0.083700
     29 H12          2.5660    -1.7710    -0.8080 hc         1 AY0       0.077700
     30 H13          1.9610     3.8510    -2.1960 h1         1 AY0       0.016700
     31 H2           2.6770     1.6600    -1.9330 hn         1 AY0       0.301500
     32 O7          -3.1510     0.2390     0.4220 os         1 AY0      -0.460500
@<TRIPOS>BOND
     1     1    11 1   
     2     1    21 1   
     3     1    22 1   
     4     1    30 1   
     5     2    12 2   
     6     3    13 1   
     7     4    19 1   
     8     5    19 1   
     9     6    19 1   
    10     7     9 ar  
    11     7    14 ar  
    12     7    23 1   
    13     8    10 ar  
    14     8    14 ar  
    15     8    24 1   
    16     9    15 ar  
    17     9    25 1   
    18    10    15 ar  
    19    10    26 1   
    20    11    12 1   
    21    11    31 1   
    22    12    16 1   
    23    13    17 1   
    24    13    20 1   
    25    14    32 1   
    26    15    18 1   
    27    16    17 1   
    28    16    18 1   
    29    16    27 1   
    30    17    18 1   
    31    17    28 1   
    32    18    29 1   
    33    19    32 1   
@<TRIPOS>SUBSTRUCTURE
     1 AY0         1 TEMP              0 ****  ****    0 ROOT
