@<TRIPOS>MOLECULE
AY0
   32    33     1     0     0
SMALL
bcc


@<TRIPOS>ATOM
      1 C1           3.1190     3.9260    -0.3480 c3         1 AY0       0.108300
      2 O2           2.3960     1.7940     1.2730 o          1 AY0      -0.609100
      3 O            4.6250    -2.4030    -0.4390 o          1 AY0      -0.859800
      4 O4          -4.3480    -1.4110     0.4930 o          1 AY0      -0.911833
      5 O5          -4.2930    -0.4240    -1.8710 o          1 AY0      -0.911833
      6 O6          -5.6920     0.7190    -0.0420 o          1 AY0      -0.911833
      7 C2          -1.2640    -0.1240     1.0580 ca         1 AY0      -0.210000
      8 C3          -1.2570     0.5010    -1.2540 ca         1 AY0      -0.210000
      9 C4           0.0650    -0.5110     0.9540 ca         1 AY0      -0.100500
     10 C5           0.0690     0.1090    -1.3460 ca         1 AY0      -0.100500
     11 N            3.3800     2.5310    -0.6090 ns         1 AY0      -0.596900
     12 C6           2.9870     1.5550     0.2270 c          1 AY0       0.709100
     13 C            4.1440    -2.1100     0.6740 c          1 AY0       0.948600
     14 C8          -1.9420     0.4090    -0.0390 ca         1 AY0       0.282100
     15 C9           0.7580    -0.3990    -0.2450 ca         1 AY0      -0.158300
     16 C10          3.3110     0.1780    -0.2350 cx         1 AY0      -0.265700
     17 C11          3.1390    -0.9730     0.7170 cx         1 AY0      -0.185700
     18 C12          2.1780    -0.8080    -0.4130 cx         1 AY0       0.007600
     19 P1          -4.5220    -0.1860    -0.3880 p5         1 AY0       1.271900
     20 OXT          4.3980    -2.6590     1.7650 o          1 AY0      -0.859800
     21 H15          2.0500     4.1310    -0.2750 h1         1 AY0       0.016700
     22 H3           3.5930     4.2610     0.5760 h1         1 AY0       0.016700
     23 H6          -1.7820    -0.2200     2.0040 ha         1 AY0       0.129000
     24 H7          -1.7690     0.8950    -2.1210 ha         1 AY0       0.129000
     25 H8           0.5630    -0.9120     1.8280 ha         1 AY0       0.089500
     26 H9           0.5820     0.2020    -2.2970 ha         1 AY0       0.089500
     27 H10          4.1150     0.0920    -0.9580 hc         1 AY0       0.074700
     28 H11          2.7790    -0.6940     1.7010 hc         1 AY0       0.083700
     29 H12          2.3490    -1.4830    -1.2460 hc         1 AY0       0.077700
     30 H13          3.5230     4.5120    -1.1690 h1         1 AY0       0.016700
     31 H2           3.8450     2.2840    -1.4650 hn         1 AY0       0.301500
     32 O7          -3.1990     0.8570     0.0860 os         1 AY0      -0.460500
@<TRIPOS>BOND
     1     1    11 1   
     2     1    21 1   
     3     1    22 1   
     4     1    30 1   
     5     2    12 2   
     6     3    13 1   
     7     4    19 1   
     8     5    19 1   
     9     6    19 1   
    10     7     9 ar  
    11     7    14 ar  
    12     7    23 1   
    13     8    10 ar  
    14     8    14 ar  
    15     8    24 1   
    16     9    15 ar  
    17     9    25 1   
    18    10    15 ar  
    19    10    26 1   
    20    11    12 1   
    21    11    31 1   
    22    12    16 1   
    23    13    17 1   
    24    13    20 1   
    25    14    32 1   
    26    15    18 1   
    27    16    17 1   
    28    16    18 1   
    29    16    27 1   
    30    17    18 1   
    31    17    28 1   
    32    18    29 1   
    33    19    32 1   
@<TRIPOS>SUBSTRUCTURE
     1 AY0         1 TEMP              0 ****  ****    0 ROOT
