@<TRIPOS>MOLECULE
AY1
   76    77     1     0     0
SMALL
abcg2


@<TRIPOS>ATOM
      1 C1          56.4000    69.4410   142.4290 c          1 AY1       0.603900
      2 C2          58.8670    69.5130   142.1000 ca         1 AY1      -0.078000
      3 C3          59.0390    68.3610   141.3440 ca         1 AY1      -0.074000
      4 C5          61.4130    68.7630   141.2300 ca         1 AY1      -0.069000
      5 C6          61.2720    69.9390   141.9830 ca         1 AY1      -0.240600
      6 C7          59.9890    70.3040   142.4290 ca         1 AY1       0.172100
      7 C8          62.4080    70.8240   142.3370 c          1 AY1       0.635700
      8 C9          64.8160    71.3190   142.0600 c3         1 AY1       0.055700
      9 O9          68.8210    74.9260   146.6730 o          1 AY1      -0.469000
     10 C11         63.8400    73.1730   140.5490 c3         1 AY1      -0.097100
     11 C12         65.6190    74.3390   143.2920 c          1 AY1       0.666100
     12 C13         65.5980    74.4770   144.8010 c3         1 AY1      -0.130700
     13 C14         66.7830    73.6520   145.3570 c3         1 AY1       0.166300
     14 C4          60.3140    67.9890   140.9170 ca         1 AY1      -0.135000
     15 N1          57.6350    69.9720   142.5880 ns         1 AY1      -0.147000
     16 N2          63.6050    70.5820   141.7740 ns         1 AY1      -0.475900
     17 O1          56.1190    68.4260   141.8090 o          1 AY1      -0.593100
     18 O2          59.7640    71.4030   143.1730 oh         1 AY1      -0.583100
     19 O3          62.2520    71.7850   143.1150 o          1 AY1      -0.623100
     20 C10         64.8240    72.8210   141.6400 c3         1 AY1       0.184300
     21 O4          64.5770    73.6280   142.8220 os         1 AY1      -0.441100
     22 O6          66.3200    71.8880   143.7980 os         1 AY1      -0.470100
     23 C15         66.6490    72.1320   145.1940 c3         1 AY1       0.171300
     24 C16         67.9150    71.3800   145.5450 c3         1 AY1      -0.103100
     25 C17         65.2520    71.1260   143.5180 c          1 AY1       0.656100
     26 C20         63.1830    76.4270   145.6430 c3         1 AY1      -0.075400
     27 O7          64.7210    70.3810   144.3000 o          1 AY1      -0.509000
     28 O8          66.8350    73.8600   146.7800 os         1 AY1      -0.461100
     29 C21         63.0040    77.1280   146.9970 c3         1 AY1      -0.072400
     30 C22         64.0440    76.8230   148.0920 c3         1 AY1      -0.076400
     31 C23         65.2030    77.8180   148.1600 c3         1 AY1      -0.093100
     32 C24         67.8840    74.5200   147.3190 c          1 AY1       0.592100
     33 C25         67.7180    74.6450   148.8170 c3         1 AY1      -0.118700
     34 C26         68.0050    73.2840   149.4720 c3         1 AY1      -0.084100
     35 C27         68.6030    75.7490   149.3850 c3         1 AY1      -0.084100
     36 H1          55.6380    70.0470   142.9410 h5         1 AY1       0.020200
     37 H2          58.1800    67.7590   141.0990 ha         1 AY1       0.154000
     38 H3          62.3880    68.4350   140.8960 ha         1 AY1       0.104000
     39 H4          65.5900    70.8430   141.4550 h1         1 AY1       0.077700
     40 H5          63.9970    74.2080   140.2450 hc         1 AY1       0.054033
     41 H6          64.0000    72.5290   139.6830 hc         1 AY1       0.054033
     42 H7          62.8120    73.0580   140.8870 hc         1 AY1       0.054033
     43 H8          64.6730    74.0390   145.1790 hc         1 AY1       0.092700
     44 H9          67.7110    74.0020   144.9100 h1         1 AY1       0.096700
     45 H10         60.4380    67.0840   140.3380 ha         1 AY1       0.123000
     46 H11         63.6920    69.8240   141.1200 hn         1 AY1       0.328500
     47 H12         65.8320    73.0530   141.3080 h1         1 AY1       0.077700
     48 H13         65.8120    71.7880   145.7990 h1         1 AY1       0.084700
     49 H14         68.1900    71.5720   146.5820 hc         1 AY1       0.053700
     50 H15         67.7590    70.3080   145.4240 hc         1 AY1       0.053700
     51 H16         68.7360    71.6960   144.9000 hc         1 AY1       0.053700
     52 H17         66.5760    76.3840   144.7190 hc         1 AY1       0.059200
     53 H18         65.8730    76.0010   146.2760 hc         1 AY1       0.059200
     54 H19         64.2450    76.6300   143.7770 hc         1 AY1       0.043200
     55 H20         64.6800    77.8290   144.9670 hc         1 AY1       0.043200
     56 H21         62.3160    76.6860   145.0290 hc         1 AY1       0.041200
     57 H22         63.1220    75.3450   145.7960 hc         1 AY1       0.041200
     58 H23         62.9680    78.2120   146.8350 hc         1 AY1       0.036700
     59 H24         62.0150    76.8480   147.3690 hc         1 AY1       0.036700
     60 H25         63.5410    76.8280   149.0630 hc         1 AY1       0.036700
     61 H26         64.4280    75.8060   147.9620 hc         1 AY1       0.036700
     62 H27         65.9170    77.5390   148.9370 hc         1 AY1       0.031700
     63 H28         65.7480    77.8840   147.2180 hc         1 AY1       0.031700
     64 H29         64.8290    78.8190   148.3910 hc         1 AY1       0.031700
     65 H30         66.6680    74.8930   148.9900 hc         1 AY1       0.076700
     66 H31         67.8540    73.3600   150.5490 hc         1 AY1       0.046033
     67 H32         67.3450    72.5070   149.0850 hc         1 AY1       0.046033
     68 H33         69.0390    72.9820   149.2920 hc         1 AY1       0.046033
     69 H34         68.4230    75.8450   150.4570 hc         1 AY1       0.046033
     70 H35         69.6590    75.5180   149.2350 hc         1 AY1       0.046033
     71 H36         68.3910    76.7090   148.9140 hc         1 AY1       0.046033
     72 H37         57.6840    70.8200   143.1340 hn         1 AY1       0.174000
     73 H38         60.6670    71.8020   143.3400 ho         1 AY1       0.533000
     74 C18         65.6980    75.9520   145.2060 c3         1 AY1      -0.070400
     75 O5          66.4960    74.7900   142.5930 o          1 AY1      -0.531000
     76 C19         64.4520    76.7670   144.8440 c3         1 AY1      -0.071400
@<TRIPOS>BOND
     1     1    15 1   
     2     1    17 2   
     3     1    36 1   
     4     2     3 ar  
     5     2     6 ar  
     6     2    15 1   
     7     3    14 ar  
     8     3    37 1   
     9     4     5 ar  
    10     4    14 ar  
    11     4    38 1   
    12     5     6 ar  
    13     5     7 1   
    14     6    18 1   
    15     7    16 1   
    16     7    19 2   
    17     8    16 1   
    18     8    20 1   
    19     8    25 1   
    20     8    39 1   
    21     9    32 2   
    22    10    20 1   
    23    10    40 1   
    24    10    41 1   
    25    10    42 1   
    26    11    12 1   
    27    11    21 1   
    28    11    75 2   
    29    12    13 1   
    30    12    43 1   
    31    12    74 1   
    32    13    23 1   
    33    13    28 1   
    34    13    44 1   
    35    14    45 1   
    36    15    72 1   
    37    16    46 1   
    38    18    73 1   
    39    20    21 1   
    40    20    47 1   
    41    22    23 1   
    42    22    25 1   
    43    23    24 1   
    44    23    48 1   
    45    24    49 1   
    46    24    50 1   
    47    24    51 1   
    48    25    27 2   
    49    26    29 1   
    50    26    56 1   
    51    26    57 1   
    52    26    76 1   
    53    28    32 1   
    54    29    30 1   
    55    29    58 1   
    56    29    59 1   
    57    30    31 1   
    58    30    60 1   
    59    30    61 1   
    60    31    62 1   
    61    31    63 1   
    62    31    64 1   
    63    32    33 1   
    64    33    34 1   
    65    33    35 1   
    66    33    65 1   
    67    34    66 1   
    68    34    67 1   
    69    34    68 1   
    70    35    69 1   
    71    35    70 1   
    72    35    71 1   
    73    52    74 1   
    74    53    74 1   
    75    54    76 1   
    76    55    76 1   
    77    74    76 1   
@<TRIPOS>SUBSTRUCTURE
     1 AY1         1 TEMP              0 ****  ****    0 ROOT
