@<TRIPOS>MOLECULE
AY1
   76    77     1     0     0
SMALL
No Charge or Current Charge


@<TRIPOS>ATOM
      1 C1          56.2230    69.7250   143.0880 c          1 AY1       0.603900
      2 C2          58.7380    69.8370   142.5190 ca         1 AY1      -0.078000
      3 C3          58.8150    68.7850   141.5830 ca         1 AY1      -0.074000
      4 C5          61.2010    69.1880   141.3020 ca         1 AY1      -0.069000
      5 C6          61.1560    70.2500   142.2390 ca         1 AY1      -0.240600
      6 C7          59.9090    70.5610   142.8390 ca         1 AY1       0.172100
      7 C8          62.3990    71.0390   142.5960 c          1 AY1       0.635700
      8 C9          64.9070    71.3100   142.1720 c3         1 AY1       0.055700
      9 O9          69.4080    74.1450   146.8080 o          1 AY1      -0.469000
     10 C11         63.9810    73.2040   140.5650 c3         1 AY1      -0.097100
     11 C12         65.9190    74.4410   143.1510 c          1 AY1       0.666100
     12 C13         65.9330    74.6840   144.6680 c3         1 AY1      -0.130700
     13 C14         67.0640    73.8160   145.3160 c3         1 AY1       0.166300
     14 C4          60.0420    68.4680   140.9820 ca         1 AY1      -0.135000
     15 N1          57.5210    70.2100   143.1670 ns         1 AY1      -0.147000
     16 N2          63.5740    70.6650   141.9760 ns         1 AY1      -0.475900
     17 O1          55.8560    68.7940   142.3740 o          1 AY1      -0.593100
     18 O2          59.8290    71.5780   143.7450 oh         1 AY1      -0.583100
     19 O3          62.3590    71.9660   143.3930 o          1 AY1      -0.623100
     20 C10         65.0030    72.7910   141.6480 c3         1 AY1       0.184300
     21 O4          64.8370    73.6910   142.7640 os         1 AY1      -0.441100
     22 O6          66.5370    71.8850   143.8970 os         1 AY1      -0.470100
     23 C15         66.8370    72.2600   145.2580 c3         1 AY1       0.171300
     24 C16         68.0380    71.4010   145.7040 c3         1 AY1      -0.103100
     25 C17         65.4030    71.1460   143.6470 c          1 AY1       0.656100
     26 C20         63.4600    76.7350   144.7920 c3         1 AY1      -0.075400
     27 O7          64.8470    70.4560   144.4940 o          1 AY1      -0.509000
     28 O8          67.1120    74.1930   146.7110 os         1 AY1      -0.461100
     29 C21         63.1120    76.8920   146.2970 c3         1 AY1      -0.072400
     30 C22         63.3720    75.6430   147.1740 c3         1 AY1      -0.076400
     31 C23         62.9270    75.8330   148.6360 c3         1 AY1      -0.093100
     32 C24         68.3220    74.3100   147.3460 c          1 AY1       0.592100
     33 C25         68.1470    74.6910   148.8270 c3         1 AY1      -0.118700
     34 C26         68.7280    73.6020   149.7590 c3         1 AY1      -0.084100
     35 C27         68.7390    76.0900   149.1170 c3         1 AY1      -0.084100
     36 H1          55.5400    70.2830   143.7550 h5         1 AY1       0.020200
     37 H2          57.9420    68.2020   141.3070 ha         1 AY1       0.154000
     38 H3          62.1260    68.9040   140.8070 ha         1 AY1       0.104000
     39 H4          65.6200    70.7300   141.5730 h1         1 AY1       0.077700
     40 H5          64.2270    74.1980   140.1740 hc         1 AY1       0.054033
     41 H6          64.0010    72.4970   139.7270 hc         1 AY1       0.054033
     42 H7          62.9630    73.2420   140.9660 hc         1 AY1       0.054033
     43 H8          64.9850    74.3100   145.0680 hc         1 AY1       0.092700
     44 H9          68.0050    74.0590   144.8010 h1         1 AY1       0.096700
     45 H10         60.0940    67.6560   140.2600 ha         1 AY1       0.123000
     46 H11         63.5140    69.8780   141.3440 hn         1 AY1       0.328500
     47 H12         66.0020    72.8930   141.2020 h1         1 AY1       0.077700
     48 H13         65.9920    72.0410   145.9260 h1         1 AY1       0.084700
     49 H14         68.2470    71.5470   146.7690 hc         1 AY1       0.053700
     50 H15         67.8260    70.3360   145.5490 hc         1 AY1       0.053700
     51 H16         68.9360    71.6620   145.1330 hc         1 AY1       0.053700
     52 H17         67.0060    76.5780   144.6020 hc         1 AY1       0.059200
     53 H18         66.0790    76.3820   146.0650 hc         1 AY1       0.059200
     54 H19         64.9850    77.0540   143.2900 hc         1 AY1       0.043200
     55 H20         65.1110    78.1320   144.6600 hc         1 AY1       0.043200
     56 H21         62.8010    77.4080   144.2310 hc         1 AY1       0.041200
     57 H22         63.2030    75.7250   144.4520 hc         1 AY1       0.041200
     58 H23         63.6510    77.7540   146.7100 hc         1 AY1       0.036700
     59 H24         62.0440    77.1350   146.3700 hc         1 AY1       0.036700
     60 H25         62.8380    74.7840   146.7490 hc         1 AY1       0.036700
     61 H26         64.4360    75.3860   147.1740 hc         1 AY1       0.036700
     62 H27         63.1280    74.9250   149.2170 hc         1 AY1       0.031700
     63 H28         63.4690    76.6650   149.1010 hc         1 AY1       0.031700
     64 H29         61.8520    76.0450   148.6910 hc         1 AY1       0.031700
     65 H30         67.0690    74.7490   149.0230 hc         1 AY1       0.076700
     66 H31         68.5430    73.8520   150.8110 hc         1 AY1       0.046033
     67 H32         68.2620    72.6300   149.5530 hc         1 AY1       0.046033
     68 H33         69.8110    73.5010   149.6150 hc         1 AY1       0.046033
     69 H34         68.5550    76.3820   150.1580 hc         1 AY1       0.046033
     70 H35         69.8220    76.1010   148.9440 hc         1 AY1       0.046033
     71 H36         68.2790    76.8450   148.4670 hc         1 AY1       0.046033
     72 H37         57.6310    70.9830   143.8110 hn         1 AY1       0.174000
     73 H38         60.7530    71.9470   143.8140 ho         1 AY1       0.533000
     74 C18         66.0450    76.2100   144.9840 c3         1 AY1      -0.070400
     75 O5          66.8090    74.8120   142.3970 o          1 AY1      -0.531000
     76 C19         64.9170    77.0880   144.3840 c3         1 AY1      -0.071400
@<TRIPOS>BOND
     1     1    15 1   
     2     1    17 2   
     3     1    36 1   
     4     2     3 ar  
     5     2     6 ar  
     6     2    15 1   
     7     3    14 ar  
     8     3    37 1   
     9     4     5 ar  
    10     4    14 ar  
    11     4    38 1   
    12     5     6 ar  
    13     5     7 1   
    14     6    18 1   
    15     7    16 1   
    16     7    19 2   
    17     8    16 1   
    18     8    20 1   
    19     8    25 1   
    20     8    39 1   
    21     9    32 2   
    22    10    20 1   
    23    10    40 1   
    24    10    41 1   
    25    10    42 1   
    26    11    12 1   
    27    11    21 1   
    28    11    75 2   
    29    12    13 1   
    30    12    43 1   
    31    12    74 1   
    32    13    23 1   
    33    13    28 1   
    34    13    44 1   
    35    14    45 1   
    36    15    72 1   
    37    16    46 1   
    38    18    73 1   
    39    20    21 1   
    40    20    47 1   
    41    22    23 1   
    42    22    25 1   
    43    23    24 1   
    44    23    48 1   
    45    24    49 1   
    46    24    50 1   
    47    24    51 1   
    48    25    27 2   
    49    26    29 1   
    50    26    56 1   
    51    26    57 1   
    52    26    76 1   
    53    28    32 1   
    54    29    30 1   
    55    29    58 1   
    56    29    59 1   
    57    30    31 1   
    58    30    60 1   
    59    30    61 1   
    60    31    62 1   
    61    31    63 1   
    62    31    64 1   
    63    32    33 1   
    64    33    34 1   
    65    33    35 1   
    66    33    65 1   
    67    34    66 1   
    68    34    67 1   
    69    34    68 1   
    70    35    69 1   
    71    35    70 1   
    72    35    71 1   
    73    52    74 1   
    74    53    74 1   
    75    54    76 1   
    76    55    76 1   
    77    74    76 1   
@<TRIPOS>SUBSTRUCTURE
     1 AY1         1 TEMP              0 ****  ****    0 ROOT
