@<TRIPOS>MOLECULE
AY2
   55    58     1     0     0
SMALL
No Charge or Current Charge


@<TRIPOS>ATOM
      1 CAA          1.2820     3.2990     3.3080 c3         1 AY2      -0.098100
      2 CAB         -5.3640     1.3050    -2.4440 c3         1 AY2      -0.196100
      3 CAC         -3.5810    -5.8480     0.4550 c3         1 AY2       0.072900
      4 CAF          7.3650     0.3740    -0.7540 cc         1 AY2      -0.199000
      5 CAG          6.9400    -0.9270    -0.7970 cd         1 AY2       0.148900
      6 CAH          6.2180     1.1680    -0.5640 cc         1 AY2      -0.098000
      7 CAI         -3.5880     3.6160     0.1770 ca         1 AY2      -0.007000
      8 CAJ         -2.4450     3.6500     0.9900 ca         1 AY2      -0.227000
      9 CAK         -0.1810    -4.6940     0.1010 cc         1 AY2      -0.216000
     10 CAL         -1.0380    -5.7450     0.2050 cd         1 AY2      -0.176000
     11 CAM          0.9780    -1.8940    -0.0680 ca         1 AY2      -0.149000
     12 CAN          0.5980     0.5040    -0.0840 ca         1 AY2      -0.100000
     13 CAO         -1.2760    -1.0240     0.1400 ca         1 AY2      -0.103000
     14 CAP         -2.9100     1.4460    -0.6810 ca         1 AY2      -0.024000
     15 CAQ         -0.0390     3.6680     2.6160 c3         1 AY2       0.166600
     16 CAW          3.7300     0.6730    -0.3100 c          1 AY2       0.547600
     17 CAX          1.4890    -0.5860    -0.1440 ca         1 AY2      -0.031000
     18 CAY         -3.8370     2.5140    -0.6680 ca         1 AY2      -0.226600
     19 CAZ         -0.4080    -2.1370     0.0740 ca         1 AY2      -0.086500
     20 CBA         -0.7940     0.3040     0.0690 cp         1 AY2      -0.002000
     21 CBB         -0.9460    -3.5110     0.1540 cc         1 AY2       0.304500
     22 CBC          5.1610     0.2980    -0.5030 cd         1 AY2       0.045500
     23 CBD         -1.5280     2.5810     0.9710 ca         1 AY2       0.197100
     24 CBE         -1.7450     1.4600     0.1260 cp         1 AY2      -0.095000
     25 NAR         -2.2370    -3.7650     0.2840 nd         1 AY2      -0.521800
     26 NBF         -2.2950    -5.1510     0.3160 na         1 AY2       0.138800
     27 OAD         -5.8660     3.4430    -1.5160 o          1 AY2      -0.537100
     28 OAE          3.3490     1.8330    -0.1810 o          1 AY2      -0.574100
     29 OAT         -0.4070     2.5620     1.7780 os         1 AY2      -0.336100
     30 OAU          5.5730    -1.0140    -0.6440 os         1 AY2      -0.245000
     31 H1           1.6110     4.1170     3.9600 hc         1 AY2       0.052033
     32 H2           1.1580     2.3980     3.9210 hc         1 AY2       0.052033
     33 H3           2.0670     3.1120     2.5660 hc         1 AY2       0.052033
     34 H4          -4.5090     1.1520    -3.1110 hc         1 AY2       0.060367
     35 H5          -5.3690     0.3900    -1.8420 hc         1 AY2       0.060367
     36 H6          -6.2960     1.4170    -3.0100 hc         1 AY2       0.060367
     37 H7          -4.2360    -5.5770    -0.3820 h1         1 AY2       0.057033
     38 H8          -3.4180    -6.9320     0.4520 h1         1 AY2       0.057033
     39 H9          -4.0560    -5.5550     1.3990 h1         1 AY2       0.057033
     40 H11          7.4920    -1.8490    -0.9270 h4         1 AY2       0.056100
     41 H12          6.1890     2.2510    -0.4830 ha         1 AY2       0.159000
     42 H13         -4.2830     4.4550     0.2110 ha         1 AY2       0.132000
     43 H14         -2.2940     4.5120     1.6340 ha         1 AY2       0.121000
     44 H15          0.8960    -4.7540    -0.0030 ha         1 AY2       0.144000
     45 H16         -0.8730    -6.8160     0.2090 h4         1 AY2       0.152000
     46 H17          1.6760    -2.7240    -0.1200 ha         1 AY2       0.110000
     47 H18          0.9600     1.5220    -0.1640 ha         1 AY2       0.151000
     48 H19         -2.3450    -1.1800     0.2580 ha         1 AY2       0.133000
     49 H20         -3.0680     0.5880    -1.3290 ha         1 AY2       0.120000
     50 H21         -0.8110     3.8580     3.3740 h1         1 AY2       0.035200
     51 H22          0.1040     4.5780     2.0190 h1         1 AY2       0.035200
     52 CAV         -5.0810     2.5030    -1.5340 c          1 AY2       0.591700
     53 NAS          2.8970    -0.4400    -0.2900 ns         1 AY2      -0.135000
     54 H10          8.3850     0.7340    -0.8460 ha         1 AY2       0.148000
     55 H23          3.3900    -1.3180    -0.3990 hn         1 AY2       0.163000
@<TRIPOS>BOND
     1     1    15 1   
     2     1    31 1   
     3     1    32 1   
     4     1    33 1   
     5     2    34 1   
     6     2    35 1   
     7     2    36 1   
     8     2    52 1   
     9     3    26 1   
    10     3    37 1   
    11     3    38 1   
    12     3    39 1   
    13     4     5 2   
    14     4     6 1   
    15     4    54 1   
    16     5    30 1   
    17     5    40 1   
    18     6    22 2   
    19     6    41 1   
    20     7     8 ar  
    21     7    18 ar  
    22     7    42 1   
    23     8    23 ar  
    24     8    43 1   
    25     9    10 2   
    26     9    21 1   
    27     9    44 1   
    28    10    26 1   
    29    10    45 1   
    30    11    17 ar  
    31    11    19 ar  
    32    11    46 1   
    33    12    17 ar  
    34    12    20 ar  
    35    12    47 1   
    36    13    19 ar  
    37    13    20 ar  
    38    13    48 1   
    39    14    18 ar  
    40    14    24 ar  
    41    14    49 1   
    42    15    29 1   
    43    15    50 1   
    44    15    51 1   
    45    16    22 1   
    46    16    28 2   
    47    16    53 1   
    48    17    53 1   
    49    18    52 1   
    50    19    21 1   
    51    20    24 1   
    52    21    25 2   
    53    22    30 1   
    54    23    24 ar  
    55    23    29 1   
    56    25    26 1   
    57    27    52 2   
    58    53    55 1   
@<TRIPOS>SUBSTRUCTURE
     1 AY2         1 TEMP              0 ****  ****    0 ROOT
