@<TRIPOS>MOLECULE
AY2
   55    58     1     0     0
SMALL
abcg2


@<TRIPOS>ATOM
      1 CAA          1.2550     3.2500     3.2500 c3         1 AY2      -0.098100
      2 CAB         -5.1450     1.2570    -2.4630 c3         1 AY2      -0.196100
      3 CAC         -3.6380    -5.6260     0.5120 c3         1 AY2       0.072900
      4 CAF          7.2850     0.4900    -0.7690 cc         1 AY2      -0.199000
      5 CAG          6.8640    -0.7910    -0.9140 cd         1 AY2       0.148900
      6 CAH          6.1200     1.2590    -0.5000 cc         1 AY2      -0.098000
      7 CAI         -3.5280     3.5090     0.1950 ca         1 AY2      -0.007000
      8 CAJ         -2.4260     3.5400     1.0280 ca         1 AY2      -0.227000
      9 CAK         -0.1850    -4.7060     0.1260 cc         1 AY2      -0.216000
     10 CAL         -1.1520    -5.6740     0.2460 cd         1 AY2      -0.176000
     11 CAM          0.9790    -1.8950    -0.0820 ca         1 AY2      -0.149000
     12 CAN          0.6200     0.4880    -0.0900 ca         1 AY2      -0.100000
     13 CAO         -1.2390    -1.0280     0.1800 ca         1 AY2      -0.103000
     14 CAP         -2.8120     1.4000    -0.6790 ca         1 AY2      -0.024000
     15 CAQ         -0.0830     3.5510     2.6170 c3         1 AY2       0.166600
     16 CAW          3.6480     0.6200    -0.2840 c          1 AY2       0.547600
     17 CAX          1.4860    -0.5970    -0.1730 ca         1 AY2      -0.031000
     18 CAY         -3.7440     2.4400    -0.6720 ca         1 AY2      -0.226600
     19 CAZ         -0.3790    -2.1230     0.0890 ca         1 AY2      -0.086500
     20 CBA         -0.7460     0.2670     0.0910 cp         1 AY2      -0.002000
     21 CBB         -0.8970    -3.4910     0.1760 cc         1 AY2       0.304500
     22 CBC          5.0810     0.3830    -0.5030 cd         1 AY2       0.045500
     23 CBD         -1.5040     2.4910     1.0130 ca         1 AY2       0.197100
     24 CBE         -1.6940     1.4040     0.1380 cp         1 AY2      -0.095000
     25 NAR         -2.1960    -3.7190     0.3160 nd         1 AY2      -0.521800
     26 NBF         -2.3300    -5.0350     0.3550 na         1 AY2       0.138800
     27 OAD         -5.7260     3.3610    -1.5330 o          1 AY2      -0.537100
     28 OAE          3.2490     1.7480    -0.0490 o          1 AY2      -0.574100
     29 OAT         -0.4320     2.4350     1.8040 os         1 AY2      -0.336100
     30 OAU          5.5320    -0.8670    -0.7550 os         1 AY2      -0.245000
     31 H1           1.5620     4.0960     3.8650 hc         1 AY2       0.052033
     32 H2           1.2050     2.3700     3.8910 hc         1 AY2       0.052033
     33 H3           2.0200     3.0860     2.4910 hc         1 AY2       0.052033
     34 H4          -4.3170     1.1620    -3.1680 hc         1 AY2       0.060367
     35 H5          -5.1890     0.3260    -1.8970 hc         1 AY2       0.060367
     36 H6          -6.0700     1.3700    -3.0240 hc         1 AY2       0.060367
     37 H7          -4.2940    -5.3070    -0.2950 h1         1 AY2       0.057033
     38 H8          -3.5400    -6.7070     0.4820 h1         1 AY2       0.057033
     39 H9          -4.0740    -5.3360     1.4660 h1         1 AY2       0.057033
     40 H11          7.3790    -1.7140    -1.1230 h4         1 AY2       0.056100
     41 H12          6.0600     2.3210    -0.3300 ha         1 AY2       0.159000
     42 H13         -4.2300     4.3310     0.2270 ha         1 AY2       0.132000
     43 H14         -2.2980     4.3790     1.6980 ha         1 AY2       0.121000
     44 H15          0.8750    -4.8620     0.0190 ha         1 AY2       0.144000
     45 H16         -1.0840    -6.7500     0.2600 h4         1 AY2       0.152000
     46 H17          1.6660    -2.7310    -0.1430 ha         1 AY2       0.110000
     47 H18          0.9920     1.4940    -0.1790 ha         1 AY2       0.151000
     48 H19         -2.2990    -1.1880     0.3310 ha         1 AY2       0.133000
     49 H20         -2.9380     0.5630    -1.3530 ha         1 AY2       0.120000
     50 H21         -0.8490     3.7130     3.3810 h1         1 AY2       0.035200
     51 H22         -0.0230     4.4560     2.0050 h1         1 AY2       0.035200
     52 CAV         -4.9370     2.4360    -1.5510 c          1 AY2       0.591700
     53 NAS          2.8660    -0.4850    -0.3680 ns         1 AY2      -0.135000
     54 H10          8.3000     0.8420    -0.8440 ha         1 AY2       0.148000
     55 H23          3.3350    -1.3620    -0.5400 hn         1 AY2       0.163000
@<TRIPOS>BOND
     1     1    15 1   
     2     1    31 1   
     3     1    32 1   
     4     1    33 1   
     5     2    34 1   
     6     2    35 1   
     7     2    36 1   
     8     2    52 1   
     9     3    26 1   
    10     3    37 1   
    11     3    38 1   
    12     3    39 1   
    13     4     5 2   
    14     4     6 1   
    15     4    54 1   
    16     5    30 1   
    17     5    40 1   
    18     6    22 2   
    19     6    41 1   
    20     7     8 ar  
    21     7    18 ar  
    22     7    42 1   
    23     8    23 ar  
    24     8    43 1   
    25     9    10 2   
    26     9    21 1   
    27     9    44 1   
    28    10    26 1   
    29    10    45 1   
    30    11    17 ar  
    31    11    19 ar  
    32    11    46 1   
    33    12    17 ar  
    34    12    20 ar  
    35    12    47 1   
    36    13    19 ar  
    37    13    20 ar  
    38    13    48 1   
    39    14    18 ar  
    40    14    24 ar  
    41    14    49 1   
    42    15    29 1   
    43    15    50 1   
    44    15    51 1   
    45    16    22 1   
    46    16    28 2   
    47    16    53 1   
    48    17    53 1   
    49    18    52 1   
    50    19    21 1   
    51    20    24 1   
    52    21    25 2   
    53    22    30 1   
    54    23    24 ar  
    55    23    29 1   
    56    25    26 1   
    57    27    52 2   
    58    53    55 1   
@<TRIPOS>SUBSTRUCTURE
     1 AY2         1 TEMP              0 ****  ****    0 ROOT
