@<TRIPOS>MOLECULE
AY3
   30    32     1     0     0
SMALL
bcc


@<TRIPOS>ATOM
      1 C15       -119.4570   203.2930    -3.1410 ca         1 AY3      -0.130500
      2 C14       -119.2690   202.0460    -3.7120 ca         1 AY3      -0.116000
      3 C13       -118.2800   199.7030    -3.7160 c          1 AY3       0.923200
      4 C12       -118.4840   201.0800    -3.0860 ca         1 AY3      -0.109600
      5 C11       -117.8850   201.4060    -1.8710 ca         1 AY3      -0.116000
      6 C10       -118.0910   202.6410    -1.2800 ca         1 AY3      -0.130500
      7 O2        -118.8940   199.4870    -4.7780 o          1 AY3      -0.818800
      8 C9        -118.8990   203.5980    -1.8970 ca         1 AY3      -0.136800
      9 O1        -117.5230   198.9240    -3.1090 o          1 AY3      -0.818800
     10 C8        -119.1310   204.9120    -1.3060 ce         1 AY3       0.055800
     11 C1        -119.4170   205.2110    -0.0300 cd         1 AY3      -0.190400
     12 C         -119.5350   206.6460     0.3890 c          1 AY3       0.707700
     13 C7        -119.8710   203.0610     1.4090 ca         1 AY3      -0.068000
     14 C2        -119.7320   204.4180     1.1570 ca         1 AY3      -0.070800
     15 N         -119.8650   206.6250     1.7120 ns         1 AY3      -0.475100
     16 C6        -120.2510   202.6380     2.6790 ca         1 AY3      -0.162000
     17 C5        -120.4940   203.5600     3.6900 ca         1 AY3      -0.109000
     18 C4        -120.3800   204.9270     3.4550 ca         1 AY3      -0.178000
     19 C3        -120.0060   205.3310     2.1880 ca         1 AY3       0.049600
     20 H1        -120.0610   204.0350    -3.6510 ha         1 AY3       0.112000
     21 H2        -119.7330   201.8180    -4.6630 ha         1 AY3       0.150000
     22 H3        -117.2470   200.6810    -1.3820 ha         1 AY3       0.150000
     23 H4        -117.6030   202.8750    -0.3420 ha         1 AY3       0.112000
     24 H6        -119.0790   205.7540    -1.9930 ha         1 AY3       0.136000
     25 H7        -119.6930   202.3290     0.6350 ha         1 AY3       0.161000
     26 H8        -120.0160   207.4560     2.2630 hn         1 AY3       0.326500
     27 H9        -120.3550   201.5800     2.8790 ha         1 AY3       0.132000
     28 H10       -120.7830   203.2150     4.6740 ha         1 AY3       0.120000
     29 H11       -120.5850   205.6480     4.2360 ha         1 AY3       0.125000
     30 O         -119.3640   207.6390    -0.2890 o          1 AY3      -0.629500
@<TRIPOS>BOND
     1     1     2 ar  
     2     1     8 ar  
     3     1    20 1   
     4     2     4 ar  
     5     2    21 1   
     6     3     4 1   
     7     3     7 1   
     8     3     9 1   
     9     4     5 ar  
    10     5     6 ar  
    11     5    22 1   
    12     6     8 ar  
    13     6    23 1   
    14     8    10 1   
    15    10    11 2   
    16    10    24 1   
    17    11    12 1   
    18    11    14 1   
    19    12    15 1   
    20    12    30 2   
    21    13    14 ar  
    22    13    16 ar  
    23    13    25 1   
    24    14    19 ar  
    25    15    19 1   
    26    15    26 1   
    27    16    17 ar  
    28    16    27 1   
    29    17    18 ar  
    30    17    28 1   
    31    18    19 ar  
    32    18    29 1   
@<TRIPOS>SUBSTRUCTURE
     1 AY3         1 TEMP              0 ****  ****    0 ROOT
