@<TRIPOS>MOLECULE
AY3
   30    32     1     0     0
SMALL
No Charge or Current Charge


@<TRIPOS>ATOM
      1 C15        119.6440   203.1750    -3.1300 ca         1 AY3      -0.112500
      2 C14       -119.3170   201.9130    -3.6550 ca         1 AY3      -0.098000
      3 C13        118.0440   199.6990    -3.5570 c          1 AY3       0.712600
      4 C12       -118.3990   201.0660    -2.9890 ca         1 AY3      -0.109600
      5 C11        117.8140   201.5270    -1.7860 ca         1 AY3      -0.098000
      6 C10       -118.1430   202.7900    -1.2640 ca         1 AY3      -0.112500
      7 O2         118.5730   199.3420    -4.6010 o          1 AY3      -0.713500
      8 C9        -119.0710   203.6150    -1.9250 ca         1 AY3      -0.136800
      9 O1         117.2410   199.0020    -2.9500 o          1 AY3      -0.713500
     10 C8        -119.4120   204.9620    -1.3920 ce         1 AY3       0.005800
     11 C1         119.5990   205.3590    -0.0850 cd         1 AY3      -0.190400
     12 C         -119.3940   206.7370     0.4490 c          1 AY3       0.565200
     13 C7         120.2410   203.1480     1.1780 ca         1 AY3      -0.050000
     14 C2        -119.9050   204.5080     1.0830 ca         1 AY3      -0.070800
     15 N          119.5820   206.5980     1.7980 ns         1 AY3      -0.408100
     16 C6        -120.5120   202.6180     2.4600 ca         1 AY3      -0.144000
     17 C5         120.4610   203.4420     3.6110 ca         1 AY3      -0.091000
     18 C4        -120.1480   204.8130     3.4930 ca         1 AY3      -0.160000
     19 C3         119.8820   205.3060     2.2130 ca         1 AY3       0.049600
     20 H1        -120.3510   203.8090    -3.6590 ha         1 AY3       0.094000
     21 H2         119.7810   201.5940    -4.5860 ha         1 AY3       0.132000
     22 H3        -117.0990   200.9060    -1.2510 ha         1 AY3       0.132000
     23 H4         117.6740   203.1270    -0.3420 ha         1 AY3       0.094000
     24 H6        -119.2180   205.7740    -2.0960 ha         1 AY3       0.186000
     25 H7         120.3060   202.5170     0.2960 ha         1 AY3       0.143000
     26 H8        -119.4980   207.3780     2.4370 hn         1 AY3       0.326500
     27 H9         120.7690   201.5670     2.5620 ha         1 AY3       0.114000
     28 H10       -120.6760   203.0190     4.5900 ha         1 AY3       0.102000
     29 H11        120.1220   205.4620     4.3650 ha         1 AY3       0.107000
     30 O         -119.1060   207.7640    -0.1480 o          1 AY3      -0.554000
@<TRIPOS>BOND
     1     1     2 ar  
     2     1     8 ar  
     3     1    20 1   
     4     2     4 ar  
     5     2    21 1   
     6     3     4 1   
     7     3     7 1   
     8     3     9 1   
     9     4     5 ar  
    10     5     6 ar  
    11     5    22 1   
    12     6     8 ar  
    13     6    23 1   
    14     8    10 1   
    15    10    11 2   
    16    10    24 1   
    17    11    12 1   
    18    11    14 1   
    19    12    15 1   
    20    12    30 2   
    21    13    14 ar  
    22    13    16 ar  
    23    13    25 1   
    24    14    19 ar  
    25    15    19 1   
    26    15    26 1   
    27    16    17 ar  
    28    16    27 1   
    29    17    18 ar  
    30    17    28 1   
    31    18    19 ar  
    32    18    29 1   
@<TRIPOS>SUBSTRUCTURE
     1 AY3         1 TEMP              0 ****  ****    0 ROOT
