@<TRIPOS>MOLECULE
AY4
   20    21     1     0     0
SMALL
abcg2


@<TRIPOS>ATOM
      1 N1          -3.5530    -0.4910     0.0640 na         1 AY4       0.017800
      2 C4          -0.1180     0.2230     0.0270 ca         1 AY4      -0.178500
      3 C5           0.6190     1.4090    -0.0300 ca         1 AY4      -0.112000
      4 C6           1.9920     1.3620    -0.0280 ca         1 AY4       0.147000
      5 C7           2.6860     0.1670     0.0300 ca         1 AY4      -0.151000
      6 C8           1.9470    -0.9920     0.0860 ca         1 AY4       0.148000
      7 C1          -2.4440     1.3820    -0.0280 cc         1 AY4      -0.209000
      8 C2          -3.7060     0.8390    -0.0010 cd         1 AY4      -0.162000
      9 N2          -2.2830    -0.8550     0.0810 nd         1 AY4      -0.580800
     10 C3          -1.5790     0.2710     0.0250 cc         1 AY4       0.327500
     11 C9           0.5530    -1.0100     0.0860 ca         1 AY4       0.133100
     12 O1          -0.0520    -2.2010     0.1430 oh         1 AY4      -0.530100
     13 F1           2.5830    -2.1690     0.1440 f          1 AY4      -0.162000
     14 F2           2.6900     2.5080    -0.0860 f          1 AY4      -0.176000
     15 H1          -4.2780    -1.1900     0.1000 hn         1 AY4       0.379000
     16 H2           0.1160     2.3660    -0.0780 ha         1 AY4       0.134000
     17 H3           3.7680     0.1360     0.0310 ha         1 AY4       0.150000
     18 H4          -2.1960     2.4290    -0.0800 ha         1 AY4       0.152000
     19 H5          -4.6800     1.2990    -0.0230 h4         1 AY4       0.160000
     20 H6          -1.0260    -2.0630     0.1350 ho         1 AY4       0.512000
@<TRIPOS>BOND
     1     1     8 1   
     2     1     9 1   
     3     1    15 1   
     4     2     3 ar  
     5     2    10 1   
     6     2    11 ar  
     7     3     4 ar  
     8     3    16 1   
     9     4     5 ar  
    10     4    14 1   
    11     5     6 ar  
    12     5    17 1   
    13     6    11 ar  
    14     6    13 1   
    15     7     8 2   
    16     7    10 1   
    17     7    18 1   
    18     8    19 1   
    19     9    10 2   
    20    11    12 1   
    21    12    20 1   
@<TRIPOS>SUBSTRUCTURE
     1 AY4         1 TEMP              0 ****  ****    0 ROOT
