@<TRIPOS>MOLECULE
AY4
   20    21     1     0     0
SMALL
No Charge or Current Charge


@<TRIPOS>ATOM
      1 N1          -3.6650    -0.4740     0.0620 na         1 AY4       0.017800
      2 C4          -0.1370     0.1560     0.0310 ca         1 AY4      -0.178500
      3 C5           0.5840     1.3770    -0.0290 ca         1 AY4      -0.112000
      4 C6           1.9880     1.3940    -0.0300 ca         1 AY4       0.147000
      5 C7           2.7160     0.2020     0.0270 ca         1 AY4      -0.151000
      6 C8           2.0300    -1.0170     0.0870 ca         1 AY4       0.148000
      7 C1          -2.4300     1.3180    -0.0250 cc         1 AY4      -0.209000
      8 C2          -3.7310     0.9190    -0.0050 cd         1 AY4      -0.162000
      9 N2          -2.3480    -0.9400     0.0850 nd         1 AY4      -0.580800
     10 C3          -1.6190     0.1660     0.0310 cc         1 AY4       0.327500
     11 C9           0.6150    -1.0520     0.0890 ca         1 AY4       0.133100
     12 O1          -0.0260    -2.2580     0.1480 oh         1 AY4      -0.530100
     13 F1           2.7440    -2.1670     0.1420 f          1 AY4      -0.162000
     14 F2           2.6430     2.5740    -0.0880 f          1 AY4      -0.176000
     15 H1          -4.4610    -1.1130     0.0940 hn         1 AY4       0.379000
     16 H2           0.0720     2.3320    -0.0750 ha         1 AY4       0.134000
     17 H3           3.8020     0.2220     0.0260 ha         1 AY4       0.150000
     18 H4          -2.0830     2.3420    -0.0750 ha         1 AY4       0.152000
     19 H5          -4.6600     1.4790    -0.0320 h4         1 AY4       0.160000
     20 H6          -0.9960    -2.0400     0.1370 ho         1 AY4       0.512000
@<TRIPOS>BOND
     1     1     8 1   
     2     1     9 1   
     3     1    15 1   
     4     2     3 ar  
     5     2    10 1   
     6     2    11 ar  
     7     3     4 ar  
     8     3    16 1   
     9     4     5 ar  
    10     4    14 1   
    11     5     6 ar  
    12     5    17 1   
    13     6    11 ar  
    14     6    13 1   
    15     7     8 2   
    16     7    10 1   
    17     7    18 1   
    18     8    19 1   
    19     9    10 2   
    20    11    12 1   
    21    12    20 1   
@<TRIPOS>SUBSTRUCTURE
     1 AY4         1 TEMP              0 ****  ****    0 ROOT
