@<TRIPOS>MOLECULE
AY5
   43    45     1     0     0
SMALL
abcg2


@<TRIPOS>ATOM
      1 C1           1.0310    -2.9220     1.3850 ca         1 AY5      -0.115000
      2 C2          -0.2130    -2.3110     1.3270 ca         1 AY5      -0.110000
      3 C3          -2.5320    -0.4060     1.4930 ca         1 AY5      -0.088500
      4 C7          -3.5750     0.3990    -0.9330 ca         1 AY5      -0.126000
      5 C8           5.3870    -1.3800    -1.0590 ca         1 AY5      -0.100000
      6 C9           6.5530    -1.0170    -0.3990 ca         1 AY5      -0.107000
      7 C10          0.5530    -0.9430    -0.4820 ca         1 AY5      -0.106000
      8 C11          4.1470     0.1670     0.2820 ca         1 AY5      -0.077000
      9 C12         -1.7910    -0.6460     0.3320 cp         1 AY5      -0.164000
     10 C13         -0.4730    -1.3070     0.3940 cp         1 AY5       0.054000
     11 C14         -4.3140     0.6370     0.2230 ca         1 AY5       0.074700
     12 C15          1.8000    -1.5490    -0.4330 ca         1 AY5      -0.145300
     13 C16          4.1730    -0.7990    -0.7200 ca         1 AY5      -0.083300
     14 C19          2.8770    -1.1580    -1.4240 c3         1 AY5       0.264900
     15 C20         -5.6570     1.2900     0.1940 c3         1 AY5      -0.118400
     16 C4          -2.3390    -0.2310    -0.8800 ca         1 AY5      -0.088500
     17 C5           2.0400    -2.5440     0.5120 ca         1 AY5      -0.151000
     18 C6          -3.7640     0.2180     1.4350 ca         1 AY5      -0.126000
     19 C17          6.5210    -0.0580     0.5980 ca         1 AY5       0.108000
     20 C18          5.3090     0.5390     0.9340 ca         1 AY5       0.118000
     21 O22          3.0470    -2.1420    -2.4130 oh         1 AY5      -0.654000
     22 O23         -5.8820     2.0200    -0.9930 oh         1 AY5      -0.742000
     23 P26         -7.0840     0.0190     0.3020 p5         1 AY5       1.246500
     24 CL1          7.9740     0.3840     1.4100 cl         1 AY5      -0.200000
     25 CL2          5.2380     1.7440     2.1650 cl         1 AY5      -0.183000
     26 H1           1.2110    -3.7000     2.1150 ha         1 AY5       0.095000
     27 H2          -0.9930    -2.6300     2.0070 ha         1 AY5       0.127000
     28 H3          -2.1290    -0.6890     2.4580 ha         1 AY5       0.073000
     29 H4          -3.9670     0.7090    -1.8930 ha         1 AY5       0.117500
     30 H5           5.4440    -2.1230    -1.8410 ha         1 AY5       0.125000
     31 H6           7.4930    -1.4830    -0.6630 ha         1 AY5       0.119000
     32 H7           0.3870    -0.1510    -1.2040 ha         1 AY5       0.116000
     33 H8           3.2120     0.6350     0.5640 ha         1 AY5       0.152000
     34 H9           2.5380    -0.2640    -1.9560 h1         1 AY5       0.087700
     35 H10         -5.7290     1.9620     1.0610 h1         1 AY5       0.042700
     36 H11         -1.8040    -0.4130    -1.8040 ha         1 AY5       0.073000
     37 H12          3.0130    -3.0180     0.5820 ha         1 AY5       0.087000
     38 H13         -4.3040     0.4020     2.3570 ha         1 AY5       0.117500
     39 H14          3.1510    -3.0020    -1.9910 ho         1 AY5       0.444000
     40 H15         -6.5450     1.4380    -1.4450 ho         1 AY5       0.493000
     41 O21         -6.5070    -1.3200     0.7390 o          1 AY5      -0.884500
     42 O24         -8.1110     0.6170     1.2620 o          1 AY5      -0.884500
     43 O25         -7.5220     0.0730    -1.1860 o          1 AY5      -0.884500
@<TRIPOS>BOND
     1     1     2 ar  
     2     1    17 ar  
     3     1    26 1   
     4     2    10 ar  
     5     2    27 1   
     6     3     9 ar  
     7     3    18 ar  
     8     3    28 1   
     9     4    11 ar  
    10     4    16 ar  
    11     4    29 1   
    12     5     6 ar  
    13     5    13 ar  
    14     5    30 1   
    15     6    19 ar  
    16     6    31 1   
    17     7    10 ar  
    18     7    12 ar  
    19     7    32 1   
    20     8    13 ar  
    21     8    20 ar  
    22     8    33 1   
    23     9    10 1   
    24     9    16 ar  
    25    11    15 1   
    26    11    18 ar  
    27    12    14 1   
    28    12    17 ar  
    29    13    14 1   
    30    14    21 1   
    31    14    34 1   
    32    15    22 1   
    33    15    23 1   
    34    15    35 1   
    35    16    36 1   
    36    17    37 1   
    37    18    38 1   
    38    19    20 ar  
    39    19    24 1   
    40    20    25 1   
    41    21    39 1   
    42    22    40 1   
    43    23    41 1   
    44    23    42 1   
    45    23    43 1   
@<TRIPOS>SUBSTRUCTURE
     1 AY5         1 TEMP              0 ****  ****    0 ROOT
