@<TRIPOS>MOLECULE
AY5
   43    45     1     0     0
SMALL
No Charge or Current Charge


@<TRIPOS>ATOM
      1 C1           1.0950    -2.8190     1.7000 ca         1 AY5      -0.115000
      2 C2          -0.1630    -2.2030     1.5950 ca         1 AY5      -0.110000
      3 C3          -2.5250    -0.2720     1.5660 ca         1 AY5      -0.088500
      4 C7          -3.6540     0.2000    -0.9550 ca         1 AY5      -0.126000
      5 C8           5.4720    -1.2780    -1.2680 ca         1 AY5      -0.100000
      6 C9           6.6520    -0.7830    -0.6850 ca         1 AY5      -0.107000
      7 C10          0.5540    -1.0880    -0.4390 ca         1 AY5      -0.106000
      8 C11          4.1530     0.0100     0.3170 ca         1 AY5      -0.077000
      9 C12         -1.8030    -0.6670     0.4120 cp         1 AY5      -0.164000
     10 C13         -0.4610    -1.3250     0.5230 cp         1 AY5       0.054000
     11 C14         -4.3610     0.5870     0.2010 ca         1 AY5       0.074700
     12 C15          1.8210    -1.7000    -0.3420 ca         1 AY5      -0.145300
     13 C16          4.2050    -0.8970    -0.7660 ca         1 AY5      -0.083300
     14 C19          2.8960    -1.4130    -1.3910 c3         1 AY5       0.264900
     15 C20         -5.7270     1.2680     0.0990 c3         1 AY5      -0.118400
     16 C4          -2.3960    -0.4170    -0.8510 ca         1 AY5      -0.088500
     17 C5           2.0830    -2.5700     0.7360 ca         1 AY5      -0.151000
     18 C6          -3.7830     0.3460     1.4620 ca         1 AY5      -0.126000
     19 C17          6.5870     0.1040     0.4010 ca         1 AY5       0.108000
     20 C18          5.3320     0.5040     0.9010 ca         1 AY5       0.118000
     21 O22          3.1030    -2.6110    -2.1440 oh         1 AY5      -0.654000
     22 O23         -5.6840     2.4110    -0.8190 oh         1 AY5      -0.742000
     23 P26         -7.1480     0.0340    -0.1660 p5         1 AY5       1.246500
     24 Cl1          8.0880     0.7060     1.1080 cl         1 AY5      -0.200000
     25 Cl2          5.2080     1.6270     2.2570 cl         1 AY5      -0.183000
     26 H1           1.3020    -3.4910     2.5290 ha         1 AY5       0.095000
     27 H2          -0.9190    -2.4190     2.3450 ha         1 AY5       0.127000
     28 H3          -2.1020    -0.4320     2.5540 ha         1 AY5       0.073000
     29 H4          -4.0860     0.3770    -1.9360 ha         1 AY5       0.117500
     30 H5           5.5520    -1.9560    -2.1150 ha         1 AY5       0.125000
     31 H6           7.6190    -1.0870    -1.0780 ha         1 AY5       0.119000
     32 H7           0.3550    -0.4080    -1.2620 ha         1 AY5       0.116000
     33 H8           3.1950     0.3370     0.7140 ha         1 AY5       0.152000
     34 H9           2.5290    -0.6210    -2.0610 h1         1 AY5       0.087700
     35 H10         -5.9730     1.6490     1.0980 h1         1 AY5       0.042700
     36 H11         -1.8840    -0.7160    -1.7630 ha         1 AY5       0.073000
     37 H12          3.0560    -3.0480     0.8330 ha         1 AY5       0.087000
     38 H13         -4.3090     0.6420     2.3660 ha         1 AY5       0.117500
     39 H14          3.1680    -3.3290    -1.4800 ho         1 AY5       0.444000
     40 H15         -6.6210     2.5960    -1.0780 ho         1 AY5       0.493000
     41 O21         -6.8100    -0.9080    -1.2740 o          1 AY5      -0.884500
     42 O24         -7.3940    -0.7190     1.0990 o          1 AY5      -0.884500
     43 O25         -8.3590     0.8270    -0.5340 o          1 AY5      -0.884500
@<TRIPOS>BOND
     1     1     2 ar  
     2     1    17 ar  
     3     1    26 1   
     4     2    10 ar  
     5     2    27 1   
     6     3     9 ar  
     7     3    18 ar  
     8     3    28 1   
     9     4    11 ar  
    10     4    16 ar  
    11     4    29 1   
    12     5     6 ar  
    13     5    13 ar  
    14     5    30 1   
    15     6    19 ar  
    16     6    31 1   
    17     7    10 ar  
    18     7    12 ar  
    19     7    32 1   
    20     8    13 ar  
    21     8    20 ar  
    22     8    33 1   
    23     9    10 1   
    24     9    16 ar  
    25    11    15 1   
    26    11    18 ar  
    27    12    14 1   
    28    12    17 ar  
    29    13    14 1   
    30    14    21 1   
    31    14    34 1   
    32    15    22 1   
    33    15    23 1   
    34    15    35 1   
    35    16    36 1   
    36    17    37 1   
    37    18    38 1   
    38    19    20 ar  
    39    19    24 1   
    40    20    25 1   
    41    21    39 1   
    42    22    40 1   
    43    23    41 1   
    44    23    42 1   
    45    23    43 1   
@<TRIPOS>SUBSTRUCTURE
     1 AY5         1 TEMP              0 ****  ****    0 ROOT
