@<TRIPOS>MOLECULE
AY6
   51    54     1     0     0
SMALL
abcg2


@<TRIPOS>ATOM
      1 N            0.1500    -0.0220     0.1850 na         1 AY6       0.235000
      2 C           -0.6530    -3.5600    -0.2110 c3         1 AY6      -0.015800
      3 O           -3.5080    -2.5660     0.1640 o          1 AY6      -0.568100
      4 C1          -0.5770    -2.0850    -0.0150 cc         1 AY6      -0.104300
      5 C10          0.9620     1.1210     0.3510 ca         1 AY6       0.007800
      6 C11          1.0550     2.0730    -0.6580 ca         1 AY6       0.134000
      7 C12          1.8520     3.1950    -0.4990 ca         1 AY6      -0.098000
      8 C13          2.5630     3.3430     0.6810 ca         1 AY6       0.133000
      9 C14          2.4940     2.4000     1.6950 ca         1 AY6      -0.097000
     10 C15          1.6850     1.2910     1.5210 ca         1 AY6      -0.076000
     11 C16          1.9750    -1.6780    -0.1000 ca         1 AY6      -0.029000
     12 C17          2.5220    -2.6510     0.7330 ca         1 AY6      -0.081000
     13 C18          3.8550    -3.0110     0.6240 ca         1 AY6      -0.106000
     14 C19          4.6470    -2.3860    -0.3260 ca         1 AY6       0.128000
     15 C2           0.5630    -1.3110     0.0250 cd         1 AY6      -0.105000
     16 C20          4.1260    -1.4170    -1.1700 ca         1 AY6      -0.106000
     17 C21          2.7900    -1.0700    -1.0550 ca         1 AY6      -0.081000
     18 C3          -1.6240    -1.1480     0.1270 cc         1 AY6       0.193500
     19 C4          -3.0810    -1.4240     0.1430 c          1 AY6       0.552600
     20 C5          -5.7630     0.1690     1.3810 c6         1 AY6       0.151300
     21 C6          -7.2690    -0.0320     1.4420 c6         1 AY6      -0.073900
     22 C7          -7.9450     0.5540     0.2100 c6         1 AY6      -0.077400
     23 C8          -7.3170    -0.0180    -1.0540 c6         1 AY6      -0.073900
     24 C9          -5.8090     0.1820    -1.0490 c6         1 AY6       0.151300
     25 N1          -1.1650     0.0850     0.2480 nd         1 AY6      -0.495800
     26 N2          -3.8500    -0.3180     0.1230 ns         1 AY6      -0.387300
     27 N3          -5.2250    -0.4030     0.1520 n3         1 AY6      -0.446600
     28 CL           3.5600     4.7370     0.8840 cl         1 AY6      -0.177000
     29 CL1          0.2090     1.8400    -2.1380 cl         1 AY6      -0.158000
     30 CL2          6.3160    -2.8240    -0.4640 cl         1 AY6      -0.196000
     31 H1          -0.9700    -4.0690     0.7000 hc         1 AY6       0.051700
     32 H2          -1.3680    -3.8210    -0.9900 hc         1 AY6       0.051700
     33 H3           0.3170    -3.9640    -0.4970 hc         1 AY6       0.051700
     34 H4           1.9230     3.9320    -1.2870 ha         1 AY6       0.150000
     35 H5           3.0550     2.5280     2.6100 ha         1 AY6       0.142000
     36 H6           1.6110     0.5480     2.3040 ha         1 AY6       0.140000
     37 H7           1.9050    -3.1250     1.4850 ha         1 AY6       0.127000
     38 H8           4.2710    -3.7660     1.2770 ha         1 AY6       0.133000
     39 H9           4.7480    -0.9410    -1.9150 ha         1 AY6       0.133000
     40 H10          2.3810    -0.3340    -1.7340 ha         1 AY6       0.127000
     41 H11         -5.5330     1.2460     1.4550 h1         1 AY6       0.038200
     42 H12         -5.2790    -0.3230     2.2260 h1         1 AY6       0.038200
     43 H13         -7.4860    -1.1020     1.5130 hc         1 AY6       0.051450
     44 H14         -7.6520     0.4320     2.3540 hc         1 AY6       0.051450
     45 H15         -9.0190     0.3570     0.2290 hc         1 AY6       0.040200
     46 H16         -7.8250     1.6430     0.2130 hc         1 AY6       0.040200
     47 H17         -7.5370    -1.0870    -1.1280 hc         1 AY6       0.051450
     48 H18         -7.7340     0.4550    -1.9450 hc         1 AY6       0.051450
     49 H19         -5.3590    -0.3020    -1.9170 h1         1 AY6       0.038200
     50 H20         -5.5830     1.2590    -1.1210 h1         1 AY6       0.038200
     51 H21         -3.4100     0.5960     0.1130 hn         1 AY6       0.321500
@<TRIPOS>BOND
     1     1     5 1   
     2     1    15 1   
     3     1    25 1   
     4     2     4 1   
     5     2    31 1   
     6     2    32 1   
     7     2    33 1   
     8     3    19 2   
     9     4    15 2   
    10     4    18 1   
    11     5     6 ar  
    12     5    10 ar  
    13     6     7 ar  
    14     6    29 1   
    15     7     8 ar  
    16     7    34 1   
    17     8     9 ar  
    18     8    28 1   
    19     9    10 ar  
    20     9    35 1   
    21    10    36 1   
    22    11    12 ar  
    23    11    15 1   
    24    11    17 ar  
    25    12    13 ar  
    26    12    37 1   
    27    13    14 ar  
    28    13    38 1   
    29    14    16 ar  
    30    14    30 1   
    31    16    17 ar  
    32    16    39 1   
    33    17    40 1   
    34    18    19 1   
    35    18    25 2   
    36    19    26 1   
    37    20    21 1   
    38    20    27 1   
    39    20    41 1   
    40    20    42 1   
    41    21    22 1   
    42    21    43 1   
    43    21    44 1   
    44    22    23 1   
    45    22    45 1   
    46    22    46 1   
    47    23    24 1   
    48    23    47 1   
    49    23    48 1   
    50    24    27 1   
    51    24    49 1   
    52    24    50 1   
    53    26    27 1   
    54    26    51 1   
@<TRIPOS>SUBSTRUCTURE
     1 AY6         1 TEMP              0 ****  ****    0 ROOT
