@<TRIPOS>MOLECULE
AY6
   51    54     1     0     0
SMALL
No Charge or Current Charge


@<TRIPOS>ATOM
      1 N            0.1380     0.1600    -0.2120 na         1 AY6       0.235000
      2 C           -0.6560    -3.4190    -0.2410 c3         1 AY6      -0.015800
      3 O           -3.4780    -2.5640     0.0520 o          1 AY6      -0.568100
      4 C1          -0.5160    -1.9130    -0.1750 cc         1 AY6      -0.104300
      5 C10          1.0380     1.1930     0.0480 ca         1 AY6       0.007800
      6 C11          1.3160     2.1730    -0.9310 ca         1 AY6       0.134000
      7 C12          2.2200     3.2110    -0.6540 ca         1 AY6      -0.098000
      8 C13          2.8450     3.2840     0.6010 ca         1 AY6       0.133000
      9 C14          2.5660     2.3220     1.5850 ca         1 AY6      -0.097000
     10 C15          1.6610     1.2810     1.3120 ca         1 AY6      -0.076000
     11 C16          2.0480    -1.6010    -0.1690 ca         1 AY6      -0.029000
     12 C17          2.4040    -2.7560     0.5630 ca         1 AY6      -0.081000
     13 C18          3.7450    -3.1720     0.6490 ca         1 AY6      -0.106000
     14 C19          4.7500    -2.4410     0.0010 ca         1 AY6       0.128000
     15 C2           0.6320    -1.1560    -0.2470 cd         1 AY6      -0.105000
     16 C20          4.4160    -1.2940    -0.7320 ca         1 AY6      -0.106000
     17 C21          3.0760    -0.8770    -0.8160 ca         1 AY6      -0.081000
     18 C3          -1.6110    -0.9920    -0.0950 cc         1 AY6       0.193500
     19 C4          -3.0600    -1.4090     0.0110 c          1 AY6       0.552600
     20 C5          -5.8650     0.1180     1.4560 c6         1 AY6       0.151300
     21 C6          -7.3870    -0.1300     1.6000 c6         1 AY6      -0.073900
     22 C7          -8.1600     0.4310     0.3820 c6         1 AY6      -0.077400
     23 C8          -7.5750    -0.1350    -0.9340 c6         1 AY6      -0.073900
     24 C9          -6.0480     0.1130    -1.0170 c6         1 AY6       0.151300
     25 N1          -1.2240     0.2770    -0.0860 nd         1 AY6      -0.495800
     26 N2          -3.9270    -0.3170     0.0700 ns         1 AY6      -0.387300
     27 N3          -5.3470    -0.4340     0.1760 n3         1 AY6      -0.446600
     28 Cl           3.9780     4.5840     0.9430 cl         1 AY6      -0.177000
     29 Cl1          0.5650     2.1050    -2.5270 cl         1 AY6      -0.158000
     30 Cl2          6.4260    -2.9620     0.1080 cl         1 AY6      -0.196000
     31 H1          -0.8910    -3.8390     0.7440 hc         1 AY6       0.051700
     32 H2          -1.4450    -3.7160    -0.9400 hc         1 AY6       0.051700
     33 H3           0.2590    -3.8950    -0.6100 hc         1 AY6       0.051700
     34 H4           2.4380     3.9580    -1.4110 ha         1 AY6       0.150000
     35 H5           3.0490     2.3830     2.5570 ha         1 AY6       0.142000
     36 H6           1.4460     0.5380     2.0780 ha         1 AY6       0.140000
     37 H7           1.6520    -3.3160     1.1110 ha         1 AY6       0.127000
     38 H8           4.0040    -4.0560     1.2260 ha         1 AY6       0.133000
     39 H9           5.1940    -0.7320    -1.2420 ha         1 AY6       0.133000
     40 H10          2.8430    -0.0070    -1.4220 ha         1 AY6       0.127000
     41 H11         -5.6690     1.1990     1.5080 h1         1 AY6       0.038200
     42 H12         -5.3470    -0.3490     2.3070 h1         1 AY6       0.038200
     43 H13         -7.5740    -1.2090     1.6930 hc         1 AY6       0.051450
     44 H14         -7.7540     0.3330     2.5260 hc         1 AY6       0.051450
     45 H15         -9.2260     0.1790     0.4620 hc         1 AY6       0.040200
     46 H16         -8.0950     1.5280     0.3750 hc         1 AY6       0.040200
     47 H17         -7.7730    -1.2140    -0.9940 hc         1 AY6       0.051450
     48 H18         -8.0740     0.3240    -1.7970 hc         1 AY6       0.051450
     49 H19         -5.6610    -0.3580    -1.9320 h1         1 AY6       0.038200
     50 H20         -5.8630     1.1930    -1.1010 h1         1 AY6       0.038200
     51 H21         -3.4890     0.6020     0.0350 hn         1 AY6       0.321500
@<TRIPOS>BOND
     1     1     5 1   
     2     1    15 1   
     3     1    25 1   
     4     2     4 1   
     5     2    31 1   
     6     2    32 1   
     7     2    33 1   
     8     3    19 2   
     9     4    15 2   
    10     4    18 1   
    11     5     6 ar  
    12     5    10 ar  
    13     6     7 ar  
    14     6    29 1   
    15     7     8 ar  
    16     7    34 1   
    17     8     9 ar  
    18     8    28 1   
    19     9    10 ar  
    20     9    35 1   
    21    10    36 1   
    22    11    12 ar  
    23    11    15 1   
    24    11    17 ar  
    25    12    13 ar  
    26    12    37 1   
    27    13    14 ar  
    28    13    38 1   
    29    14    16 ar  
    30    14    30 1   
    31    16    17 ar  
    32    16    39 1   
    33    17    40 1   
    34    18    19 1   
    35    18    25 2   
    36    19    26 1   
    37    20    21 1   
    38    20    27 1   
    39    20    41 1   
    40    20    42 1   
    41    21    22 1   
    42    21    43 1   
    43    21    44 1   
    44    22    23 1   
    45    22    45 1   
    46    22    46 1   
    47    23    24 1   
    48    23    47 1   
    49    23    48 1   
    50    24    27 1   
    51    24    49 1   
    52    24    50 1   
    53    26    27 1   
    54    26    51 1   
@<TRIPOS>SUBSTRUCTURE
     1 AY6         1 TEMP              0 ****  ****    0 ROOT
