@<TRIPOS>MOLECULE
AY7
   49    52     1     0     0
SMALL
No Charge or Current Charge


@<TRIPOS>ATOM
      1 C1           3.8830    -0.4730    -0.0660 ca         1 AY7       0.667900
      2 C3           5.6040    -2.1270    -0.9380 c5         1 AY7       0.224800
      3 C11          3.6250     0.9140     0.0660 ca         1 AY7      -0.170000
      4 C12          4.6940     1.9200     0.1240 cc         1 AY7      -0.091000
      5 C16         -2.5430    -0.2590    -0.1510 ca         1 AY7      -0.004000
      6 C17         -3.3340     0.8830     0.1040 ca         1 AY7      -0.144000
      7 C18         -4.7390     0.8020     0.0810 ca         1 AY7      -0.069500
      8 C19         -5.3770    -0.4290    -0.1980 ca         1 AY7       0.048100
      9 C20         -4.5890    -1.5640    -0.4470 ca         1 AY7      -0.069500
     10 C21         -3.1860    -1.4800    -0.4220 ca         1 AY7      -0.144000
     11 C26          5.8460     3.7770     0.5440 cd         1 AY7       0.237900
     12 C27          4.5970     3.1420     0.7200 cd         1 AY7      -0.220000
     13 C28         -7.7020     0.4730    -0.0060 c3         1 AY7       0.571000
     14 N2           5.1750    -1.0200    -0.0340 nh         1 AY7      -0.785300
     15 C4           6.9910    -2.5170    -0.3400 c5         1 AY7       0.152300
     16 C5           6.6850    -2.3760     1.1700 c5         1 AY7      -0.138400
     17 C6           5.9780    -0.9970     1.2160 c5         1 AY7       0.226800
     18 N7           2.9200    -1.3980    -0.1850 nb         1 AY7      -0.767000
     19 C8           1.6390    -0.9900    -0.1670 ca         1 AY7       0.434900
     20 C9           1.2620     0.3540    -0.0270 ca         1 AY7      -0.291600
     21 C10          2.2790     1.3220     0.0890 ca         1 AY7       0.044000
     22 N14         -1.1200    -0.2550    -0.1410 ns         1 AY7      -0.146000
     23 O15         -0.4890     1.9480     0.1050 o          1 AY7      -0.577100
     24 O22         -6.7520    -0.5890    -0.2390 os         1 AY7      -0.374100
     25 O23          7.4030    -3.8460    -0.6730 oh         1 AY7      -0.644000
     26 N24          5.9880     1.8720    -0.3790 na         1 AY7       0.000800
     27 N25          6.7130     3.0290    -0.1210 nc         1 AY7      -0.519800
     28 F29         -7.5690     1.0020     1.2320 f          1 AY7      -0.102500
     29 F30         -7.5580     1.4790    -0.9000 f          1 AY7      -0.102500
     30 Cl          -9.3880    -0.1720    -0.1590 cl         1 AY7      -0.196000
     31 H1           4.9120    -2.9790    -0.8990 h1         1 AY7       0.072700
     32 H2           5.6940    -1.8000    -1.9830 h1         1 AY7       0.072700
     33 H3          -2.8850     1.8440     0.3300 ha         1 AY7       0.134500
     34 H4          -5.3070     1.7040     0.2830 ha         1 AY7       0.135000
     35 H5          -5.0700    -2.5160    -0.6610 ha         1 AY7       0.135000
     36 H6          -2.5980    -2.3750    -0.6190 ha         1 AY7       0.134500
     37 H7           6.1450     4.7600     0.8850 h4         1 AY7       0.038100
     38 H8           3.7420     3.5570     1.2410 ha         1 AY7       0.148000
     39 H9           7.7560    -1.7900    -0.6470 h1         1 AY7       0.040700
     40 H10          6.0170    -3.1710     1.5220 hc         1 AY7       0.066200
     41 H11          7.5850    -2.3980     1.7930 hc         1 AY7       0.066200
     42 H12          6.7080    -0.1760     1.2140 h1         1 AY7       0.062700
     43 H13          5.3540    -0.8950     2.1150 h1         1 AY7       0.062700
     44 H14          0.9020    -1.7850    -0.2660 h4         1 AY7       0.018100
     45 H15          2.0270     2.3770     0.1720 ha         1 AY7       0.148000
     46 H16         -0.7170    -1.1750    -0.2460 hn         1 AY7       0.154000
     47 H17          8.2560    -4.0040    -0.2110 ho         1 AY7       0.451000
     48 H18          6.3960     1.0840    -0.8800 hn         1 AY7       0.373000
     49 C13         -0.1840     0.7670    -0.0110 c          1 AY7       0.639700
@<TRIPOS>BOND
     1     1     3 ar  
     2     1    14 1   
     3     1    18 ar  
     4     2    14 1   
     5     2    15 1   
     6     2    31 1   
     7     2    32 1   
     8     3     4 1   
     9     3    21 ar  
    10     4    12 2   
    11     4    26 1   
    12     5     6 ar  
    13     5    10 ar  
    14     5    22 1   
    15     6     7 ar  
    16     6    33 1   
    17     7     8 ar  
    18     7    34 1   
    19     8     9 ar  
    20     8    24 1   
    21     9    10 ar  
    22     9    35 1   
    23    10    36 1   
    24    11    12 1   
    25    11    27 2   
    26    11    37 1   
    27    12    38 1   
    28    13    24 1   
    29    13    28 1   
    30    13    29 1   
    31    13    30 1   
    32    14    17 1   
    33    15    16 1   
    34    15    25 1   
    35    15    39 1   
    36    16    17 1   
    37    16    40 1   
    38    16    41 1   
    39    17    42 1   
    40    17    43 1   
    41    18    19 ar  
    42    19    20 ar  
    43    19    44 1   
    44    20    21 ar  
    45    20    49 1   
    46    21    45 1   
    47    22    46 1   
    48    22    49 1   
    49    23    49 2   
    50    25    47 1   
    51    26    27 1   
    52    26    48 1   
@<TRIPOS>SUBSTRUCTURE
     1 AY7         1 TEMP              0 ****  ****    0 ROOT
