@<TRIPOS>MOLECULE
AY7
   49    52     1     0     0
SMALL
bcc


@<TRIPOS>ATOM
      1 C1           3.8570    -0.5630    -0.2160 ca         1 AY7       0.733200
      2 C3           5.3590    -2.4470    -0.5550 c5         1 AY7       0.224800
      3 C11          3.5300     0.7830     0.1230 ca         1 AY7      -0.235300
      4 C12          4.5160     1.8240     0.4310 cc         1 AY7      -0.040300
      5 C16         -2.5110    -0.2060    -0.4100 ca         1 AY7       0.088600
      6 C17         -3.1840     0.9100    -0.9080 ca         1 AY7      -0.162000
      7 C18         -4.5710     0.9230    -0.9490 ca         1 AY7      -0.087500
      8 C19         -5.2870    -0.1710    -0.5020 ca         1 AY7       0.048100
      9 C20         -4.6380    -1.2950    -0.0220 ca         1 AY7      -0.087500
     10 C21         -3.2550    -1.3070     0.0210 ca         1 AY7      -0.162000
     11 C26          5.7480     3.4710     1.2150 cd         1 AY7       0.303200
     12 C27          4.6630     2.6390     1.5340 cd         1 AY7      -0.303300
     13 C28         -7.3640     0.3020     0.4510 c3         1 AY7       0.713800
     14 N2           5.0890    -1.0940    -0.0900 nh         1 AY7      -0.785300
     15 C4           6.8250    -2.6540    -0.1930 c5         1 AY7       0.129100
     16 C5           6.9550    -1.8600     1.1010 c5         1 AY7      -0.138400
     17 C6           6.1460    -0.6070     0.8000 c5         1 AY7       0.226800
     18 N7           2.9200    -1.3850    -0.7050 nb         1 AY7      -0.767000
     19 C8           1.6610    -1.0000    -0.7530 ca         1 AY7       0.500200
     20 C9           1.2120     0.2410    -0.3160 ca         1 AY7      -0.356900
     21 C10          2.2000     1.1430     0.0830 ca         1 AY7       0.026000
     22 N14         -1.1210    -0.3170    -0.3500 ns         1 AY7      -0.472100
     23 O15         -0.4940     1.8680    -0.3930 o          1 AY7      -0.577100
     24 O22         -6.6790    -0.1720    -0.6000 os         1 AY7      -0.350900
     25 O23          7.0950    -4.0270    -0.0930 oh         1 AY7      -0.581800
     26 N24          5.4710     2.2080    -0.4380 na         1 AY7       0.000400
     27 N25          6.2300     3.1990     0.0160 nc         1 AY7      -0.519800
     28 F29         -7.1090    -0.3830     1.5720 f          1 AY7      -0.223800
     29 F30         -7.0620     1.5790     0.7190 f          1 AY7      -0.223800
     30 CL          -9.0750     0.1850     0.0860 cl         1 AY7      -0.119400
     31 H1           4.7390    -3.1840    -0.0340 h1         1 AY7       0.072700
     32 H2           5.1670    -2.5450    -1.6240 h1         1 AY7       0.072700
     33 H3          -2.6480     1.7700    -1.2730 ha         1 AY7       0.152500
     34 H4          -5.0800     1.7880    -1.3520 ha         1 AY7       0.153000
     35 H5          -5.1940    -2.1620     0.3080 ha         1 AY7       0.153000
     36 H6          -2.7490    -2.1860     0.4010 ha         1 AY7       0.152500
     37 H7           6.1920     4.2490     1.8160 h4         1 AY7       0.038100
     38 H8           4.0790     2.6170     2.4380 ha         1 AY7       0.166000
     39 H9           7.4530    -2.1840    -0.9630 h1         1 AY7       0.040700
     40 H10          6.5000    -2.4230     1.9190 hc         1 AY7       0.066200
     41 H11          7.9840    -1.6280     1.3720 hc         1 AY7       0.066200
     42 H12          6.7690     0.1420     0.3070 h1         1 AY7       0.062700
     43 H13          5.7300    -0.1580     1.7010 h1         1 AY7       0.062700
     44 H14          0.9760    -1.7230    -1.1860 h4         1 AY7       0.018100
     45 H15          1.9260     2.1570     0.3470 ha         1 AY7       0.166000
     46 H16         -0.7830    -1.2420    -0.1310 hn         1 AY7       0.320500
     47 H17          8.0450    -4.1410     0.0100 ho         1 AY7       0.412000
     48 H18          5.6340     1.8390    -1.3620 hn         1 AY7       0.322700
     49 C13         -0.1990     0.6850    -0.3610 c          1 AY7       0.706700
@<TRIPOS>BOND
     1     1     3 ar  
     2     1    14 1   
     3     1    18 ar  
     4     2    14 1   
     5     2    15 1   
     6     2    31 1   
     7     2    32 1   
     8     3     4 1   
     9     3    21 ar  
    10     4    12 2   
    11     4    26 1   
    12     5     6 ar  
    13     5    10 ar  
    14     5    22 1   
    15     6     7 ar  
    16     6    33 1   
    17     7     8 ar  
    18     7    34 1   
    19     8     9 ar  
    20     8    24 1   
    21     9    10 ar  
    22     9    35 1   
    23    10    36 1   
    24    11    12 1   
    25    11    27 2   
    26    11    37 1   
    27    12    38 1   
    28    13    24 1   
    29    13    28 1   
    30    13    29 1   
    31    13    30 1   
    32    14    17 1   
    33    15    16 1   
    34    15    25 1   
    35    15    39 1   
    36    16    17 1   
    37    16    40 1   
    38    16    41 1   
    39    17    42 1   
    40    17    43 1   
    41    18    19 ar  
    42    19    20 ar  
    43    19    44 1   
    44    20    21 ar  
    45    20    49 1   
    46    21    45 1   
    47    22    46 1   
    48    22    49 1   
    49    23    49 2   
    50    25    47 1   
    51    26    27 1   
    52    26    48 1   
@<TRIPOS>SUBSTRUCTURE
     1 AY7         1 TEMP              0 ****  ****    0 ROOT
