@<TRIPOS>MOLECULE
AY8
   45    47     1     0     0
SMALL
No Charge or Current Charge


@<TRIPOS>ATOM
      1 C1           0.3370     1.2000     0.3470 cp         1 AY8      -0.105000
      2 C2           0.4270     1.7510     1.6480 ca         1 AY8      -0.161000
      3 C3           1.5330     0.7800    -0.2860 ca         1 AY8      -0.042000
      4 C4           2.7870     0.8910     0.3530 ca         1 AY8      -0.046300
      5 C5           2.8390     1.4260     1.6570 ca         1 AY8      -0.070000
      6 C6           1.6650     1.8570     2.2980 ca         1 AY8      -0.143000
      7 C7           4.0690     0.4290    -0.3560 c3         1 AY8      -0.045700
      8 C14         -0.9780     1.0790    -0.3570 cp         1 AY8      -0.069000
      9 C15         -3.4400     0.8800    -1.7390 ca         1 AY8      -0.098000
     10 C16         -2.3390     1.4990    -2.3480 ca         1 AY8      -0.165000
     11 C17         -1.1200     1.5960    -1.6650 ca         1 AY8      -0.060000
     12 C18         -2.0980     0.4440     0.2470 ca         1 AY8       0.164100
     13 C19         -3.3370     0.3430    -0.4380 ca         1 AY8      -0.132300
     14 C21         -4.5720    -0.3420     0.1930 c6         1 AY8       0.000600
     15 C22         -5.0160    -1.5920    -0.6180 c6         1 AY8      -0.068900
     16 C23         -6.2420    -2.2840     0.0310 c6         1 AY8      -0.073900
     17 C24         -7.4200    -1.2940     0.2000 c6         1 AY8      -0.071400
     18 C25         -6.9890    -0.0430     1.0030 c6         1 AY8      -0.073900
     19 C26         -5.7630     0.6470     0.3520 c6         1 AY8      -0.068900
     20 P8           4.4640    -1.4020    -0.0470 p5         1 AY8       1.261500
     21 O9           5.7210    -1.7760    -0.7670 o          1 AY8      -0.898500
     22 O10          4.6510    -1.6390     1.4180 o          1 AY8      -0.898500
     23 O11          3.3410    -2.2520    -0.5470 o          1 AY8      -0.898500
     24 F12          3.9770     0.6250    -1.6980 f          1 AY8      -0.157500
     25 F13          5.1380     1.1700     0.0410 f          1 AY8      -0.157500
     26 O20         -1.9540    -0.1000     1.4920 oh         1 AY8      -0.563100
     27 H1          -0.4670     2.1130     2.1500 ha         1 AY8       0.077000
     28 H2           1.4770     0.3520    -1.2850 ha         1 AY8       0.153000
     29 H3           3.7900     1.5130     2.1780 ha         1 AY8       0.126000
     30 H4           1.7190     2.2790     3.2990 ha         1 AY8       0.077000
     31 H5          -4.3760     0.8160    -2.2880 ha         1 AY8       0.088000
     32 H6          -2.4330     1.9060    -3.3520 ha         1 AY8       0.096000
     33 H7          -0.2760     2.0850    -2.1470 ha         1 AY8       0.123000
     34 H8          -4.3230    -0.6940     1.2020 hc         1 AY8       0.067700
     35 H9          -5.2650    -1.3100    -1.6500 hc         1 AY8       0.041200
     36 H10         -4.1840    -2.3060    -0.6840 hc         1 AY8       0.041200
     37 H11         -6.5570    -3.1370    -0.5840 hc         1 AY8       0.030450
     38 H12         -5.9590    -2.6940     1.0110 hc         1 AY8       0.030450
     39 H13         -7.7910    -0.9890    -0.7880 hc         1 AY8       0.024200
     40 H14         -8.2570    -1.7930     0.7080 hc         1 AY8       0.024200
     41 H15         -7.8250     0.6660     1.0650 hc         1 AY8       0.030450
     42 H16         -6.7470    -0.3310     2.0360 hc         1 AY8       0.030450
     43 H17         -5.4540     1.5030     0.9670 hc         1 AY8       0.041200
     44 H18         -6.0550     1.0550    -0.6250 hc         1 AY8       0.041200
     45 H21         -1.0300     0.0790     1.7700 ho         1 AY8       0.500000
@<TRIPOS>BOND
     1     1     2 ar  
     2     1     3 ar  
     3     1     8 1   
     4     2     6 ar  
     5     2    27 1   
     6     3     4 ar  
     7     3    28 1   
     8     4     5 ar  
     9     4     7 1   
    10     5     6 ar  
    11     5    29 1   
    12     6    30 1   
    13     7    20 1   
    14     7    24 1   
    15     7    25 1   
    16     8    11 ar  
    17     8    12 ar  
    18     9    10 ar  
    19     9    13 ar  
    20     9    31 1   
    21    10    11 ar  
    22    10    32 1   
    23    11    33 1   
    24    12    13 ar  
    25    12    26 1   
    26    13    14 1   
    27    14    15 1   
    28    14    19 1   
    29    14    34 1   
    30    15    16 1   
    31    15    35 1   
    32    15    36 1   
    33    16    17 1   
    34    16    37 1   
    35    16    38 1   
    36    17    18 1   
    37    17    39 1   
    38    17    40 1   
    39    18    19 1   
    40    18    41 1   
    41    18    42 1   
    42    19    43 1   
    43    19    44 1   
    44    20    21 1   
    45    20    22 1   
    46    20    23 1   
    47    26    45 1   
@<TRIPOS>SUBSTRUCTURE
     1 AY8         1 TEMP              0 ****  ****    0 ROOT
