@<TRIPOS>MOLECULE
AY8
   45    47     1     0     0
SMALL
abcg2


@<TRIPOS>ATOM
      1 C1           0.3180     1.1940     0.3640 cp         1 AY8      -0.105000
      2 C2           0.3900     1.7740     1.6340 ca         1 AY8      -0.161000
      3 C3           1.4920     0.7490    -0.2380 ca         1 AY8      -0.042000
      4 C4           2.7230     0.8780     0.3960 ca         1 AY8      -0.046300
      5 C5           2.7740     1.4320     1.6710 ca         1 AY8      -0.070000
      6 C6           1.6120     1.8820     2.2800 ca         1 AY8      -0.143000
      7 C7           3.9560     0.3700    -0.2820 c3         1 AY8      -0.045700
      8 C14         -0.9730     1.0790    -0.3550 cp         1 AY8      -0.069000
      9 C15         -3.3860     0.8990    -1.7170 ca         1 AY8      -0.098000
     10 C16         -2.3010     1.5130    -2.3240 ca         1 AY8      -0.165000
     11 C17         -1.1020     1.6030    -1.6380 ca         1 AY8      -0.060000
     12 C18         -2.0740     0.4340     0.2280 ca         1 AY8       0.164100
     13 C19         -3.3020     0.3520    -0.4400 ca         1 AY8      -0.132300
     14 C21         -4.5050    -0.3110     0.1890 c6         1 AY8       0.000600
     15 C22         -4.9000    -1.5990    -0.5440 c6         1 AY8      -0.068900
     16 C23         -6.1000    -2.2680     0.1200 c6         1 AY8      -0.073900
     17 C24         -7.2870    -1.3170     0.2240 c6         1 AY8      -0.071400
     18 C25         -6.9000    -0.0250     0.9360 c6         1 AY8      -0.073900
     19 C26         -5.7030     0.6420     0.2680 c6         1 AY8      -0.068900
     20 P8           4.1950    -1.5000    -0.1740 p5         1 AY8       1.261500
     21 O9           5.5250    -1.7330    -0.8850 o          1 AY8      -0.898500
     22 O10          4.2140    -1.7410     1.3300 o          1 AY8      -0.898500
     23 O11          2.9710    -2.0390    -0.9090 o          1 AY8      -0.898500
     24 F12          3.9240     0.7770    -1.6050 f          1 AY8      -0.157500
     25 F13          5.0530     1.0190     0.2480 f          1 AY8      -0.157500
     26 O20         -1.9890    -0.1410     1.4490 oh         1 AY8      -0.563100
     27 H1          -0.5010     2.1700     2.1070 ha         1 AY8       0.077000
     28 H2           1.4370     0.2840    -1.2130 ha         1 AY8       0.153000
     29 H3           3.7150     1.5280     2.1940 ha         1 AY8       0.126000
     30 H4           1.6600     2.3330     3.2630 ha         1 AY8       0.077000
     31 H5          -4.3250     0.8440    -2.2570 ha         1 AY8       0.088000
     32 H6          -2.3950     1.9290    -3.3180 ha         1 AY8       0.096000
     33 H7          -0.2520     2.0990    -2.0900 ha         1 AY8       0.123000
     34 H8          -4.2550    -0.5950     1.2150 hc         1 AY8       0.067700
     35 H9          -5.1440    -1.3650    -1.5870 hc         1 AY8       0.041200
     36 H10         -4.0500    -2.2860    -0.5690 hc         1 AY8       0.041200
     37 H11         -6.3810    -3.1660    -0.4360 hc         1 AY8       0.030450
     38 H12         -5.8160    -2.6040     1.1230 hc         1 AY8       0.030450
     39 H13         -7.6490    -1.0790    -0.7830 hc         1 AY8       0.024200
     40 H14         -8.1160    -1.8020     0.7450 hc         1 AY8       0.024200
     41 H15         -7.7470     0.6650     0.9570 hc         1 AY8       0.030450
     42 H16         -6.6550    -0.2440     1.9810 hc         1 AY8       0.030450
     43 H17         -5.4180     1.5460     0.8130 hc         1 AY8       0.041200
     44 H18         -5.9880     0.9630    -0.7400 hc         1 AY8       0.041200
     45 H21         -1.0760    -0.1320     1.7640 ho         1 AY8       0.500000
@<TRIPOS>BOND
     1     1     2 ar  
     2     1     3 ar  
     3     1     8 1   
     4     2     6 ar  
     5     2    27 1   
     6     3     4 ar  
     7     3    28 1   
     8     4     5 ar  
     9     4     7 1   
    10     5     6 ar  
    11     5    29 1   
    12     6    30 1   
    13     7    20 1   
    14     7    24 1   
    15     7    25 1   
    16     8    11 ar  
    17     8    12 ar  
    18     9    10 ar  
    19     9    13 ar  
    20     9    31 1   
    21    10    11 ar  
    22    10    32 1   
    23    11    33 1   
    24    12    13 ar  
    25    12    26 1   
    26    13    14 1   
    27    14    15 1   
    28    14    19 1   
    29    14    34 1   
    30    15    16 1   
    31    15    35 1   
    32    15    36 1   
    33    16    17 1   
    34    16    37 1   
    35    16    38 1   
    36    17    18 1   
    37    17    39 1   
    38    17    40 1   
    39    18    19 1   
    40    18    41 1   
    41    18    42 1   
    42    19    43 1   
    43    19    44 1   
    44    20    21 1   
    45    20    22 1   
    46    20    23 1   
    47    26    45 1   
@<TRIPOS>SUBSTRUCTURE
     1 AY8         1 TEMP              0 ****  ****    0 ROOT
