@<TRIPOS>MOLECULE
AY9
   18    18     1     0     0
SMALL
abcg2


@<TRIPOS>ATOM
      1 C1          -0.4000    -1.5790    -0.3350 c6         1 AY9       0.068600
      2 C2          -1.5550    -0.6460    -0.0670 c          1 AY9       0.511300
      3 C3          -1.2170     0.7870     0.0070 ce         1 AY9       0.009900
      4 C4           0.0410     1.1760    -0.2200 c2         1 AY9      -0.273200
      5 C5           1.1510     0.1820    -0.3860 c6         1 AY9       0.206500
      6 C6           2.4050     0.6770     0.3080 c3         1 AY9       0.171600
      7 O2          -2.7070    -1.0180     0.0090 o          1 AY9      -0.518100
      8 O3          -2.2270     1.6460     0.2170 oh         1 AY9      -0.523100
      9 O5           0.8060    -1.0710     0.1600 os         1 AY9      -0.421000
     10 O6           3.4580    -0.2100     0.0290 oh         1 AY9      -0.709000
     11 H11C        -0.5880    -2.5400     0.1460 h1         1 AY9       0.080200
     12 H12C        -0.3590    -1.7560    -1.4220 h1         1 AY9       0.080200
     13 H4           0.2840     2.2300    -0.2950 ha         1 AY9       0.202000
     14 H3          -3.0580     1.1510     0.2500 ho         1 AY9       0.484000
     15 H5           1.3710     0.0750    -1.4630 h1         1 AY9       0.059700
     16 H61C         2.6130     1.6890    -0.0620 h1         1 AY9       0.031700
     17 H62C         2.2070     0.7610     1.3850 h1         1 AY9       0.031700
     18 H6           4.2310     0.0810     0.5210 ho         1 AY9       0.507000
@<TRIPOS>BOND
     1     1     2 1   
     2     1     9 1   
     3     1    11 1   
     4     1    12 1   
     5     2     3 1   
     6     2     7 2   
     7     3     4 2   
     8     3     8 1   
     9     4     5 1   
    10     4    13 1   
    11     5     6 1   
    12     5     9 1   
    13     5    15 1   
    14     6    10 1   
    15     6    16 1   
    16     6    17 1   
    17     8    14 1   
    18    10    18 1   
@<TRIPOS>SUBSTRUCTURE
     1 AY9         1 TEMP              0 ****  ****    0 ROOT
