@<TRIPOS>MOLECULE
AY9
   18    18     1     0     0
SMALL
No Charge or Current Charge


@<TRIPOS>ATOM
      1 C1          -0.4650    -1.6120    -0.4330 c6         1 AY9       0.068600
      2 C2          -1.6090    -0.6820     0.0120 c          1 AY9       0.511300
      3 C3          -1.2620     0.7860    -0.0900 ce         1 AY9       0.009900
      4 C4           0.0170     1.1770    -0.2820 c2         1 AY9      -0.273200
      5 C5           1.1730     0.1860    -0.4480 c6         1 AY9       0.206500
      6 C6           2.4580     0.6820     0.3000 c3         1 AY9       0.171600
      7 O2          -2.6760    -1.0910     0.4630 o          1 AY9      -0.518100
      8 O3          -2.2740     1.6820     0.1090 oh         1 AY9      -0.523100
      9 O5           0.8060    -1.1230     0.0670 os         1 AY9      -0.421000
     10 O6           3.5720    -0.2290     0.2000 oh         1 AY9      -0.709000
     11 H11C        -0.6610    -2.6170    -0.0380 h1         1 AY9       0.080200
     12 H12C        -0.4530    -1.6430    -1.5320 h1         1 AY9       0.080200
     13 H4           0.2730     2.2370    -0.3260 ha         1 AY9       0.202000
     14 H3          -3.0830     1.1530     0.3020 ho         1 AY9       0.484000
     15 H5           1.4130     0.0880    -1.5170 h1         1 AY9       0.059700
     16 H61C         2.7370     1.6600    -0.1160 h1         1 AY9       0.031700
     17 H62C         2.1950     0.8410     1.3540 h1         1 AY9       0.031700
     18 H6           4.2960     0.1410     0.7560 ho         1 AY9       0.507000
@<TRIPOS>BOND
     1     1     2 1   
     2     1     9 1   
     3     1    11 1   
     4     1    12 1   
     5     2     3 1   
     6     2     7 2   
     7     3     4 2   
     8     3     8 1   
     9     4     5 1   
    10     4    13 1   
    11     5     6 1   
    12     5     9 1   
    13     5    15 1   
    14     6    10 1   
    15     6    16 1   
    16     6    17 1   
    17     8    14 1   
    18    10    18 1   
@<TRIPOS>SUBSTRUCTURE
     1 AY9         1 TEMP              0 ****  ****    0 ROOT
