@<TRIPOS>MOLECULE
AYA
   17    16     1     0     0
SMALL
No Charge or Current Charge


@<TRIPOS>ATOM
      1 N           44.1730    32.3240   106.8180 ns         1 AYA      -0.461900
      2 CA          43.1450    33.3140   107.2220 c3         1 AYA      -0.042300
      3 CB          43.7590    34.4590   108.0580 c3         1 AYA      -0.080100
      4 C           42.3770    33.8590   105.9760 c          1 AYA       0.720000
      5 O           41.1540    33.8380   105.9990 o          1 AYA      -0.726500
      6 OXT         43.0220    34.1880   104.9890 o          1 AYA      -0.726500
      7 CT          44.7170    31.3570   107.6340 c          1 AYA       0.601100
      8 OT          44.3710    31.1970   108.7970 o          1 AYA      -0.626100
      9 CM          45.7820    30.4900   106.9690 c3         1 AYA      -0.178100
     10 H           44.5250    32.3680   105.8680 hn         1 AYA       0.286500
     11 HA          42.4070    32.7940   107.8470 h1         1 AYA       0.057700
     12 HB1         42.9810    35.1690   108.3630 hc         1 AYA       0.019367
     13 HB2         44.2370    34.0690   108.9650 hc         1 AYA       0.019367
     14 HB3         44.5140    35.0040   107.4780 hc         1 AYA       0.019367
     15 HM1         46.1920    29.7280   107.6420 hc         1 AYA       0.039700
     16 HM2         45.3640    30.0430   106.0600 hc         1 AYA       0.039700
     17 HM3         46.5700    31.1370   106.5660 hc         1 AYA       0.039700
@<TRIPOS>BOND
     1     1     2 1   
     2     1     7 1   
     3     1    10 1   
     4     2     3 1   
     5     2     4 1   
     6     2    11 1   
     7     3    12 1   
     8     3    13 1   
     9     3    14 1   
    10     4     5 1   
    11     4     6 1   
    12     7     8 2   
    13     7     9 1   
    14     9    15 1   
    15     9    16 1   
    16     9    17 1   
@<TRIPOS>SUBSTRUCTURE
     1 AYA         1 TEMP              0 ****  ****    0 ROOT
