@<TRIPOS>MOLECULE
AYA
   17    16     1     0     0
SMALL
bcc


@<TRIPOS>ATOM
      1 N           44.4900    32.5270   107.2690 ns         1 AYA      -0.528900
      2 CA          43.3340    33.3620   107.5070 c3         1 AYA      -0.042300
      3 CB          43.8040    34.7790   107.8200 c3         1 AYA      -0.080100
      4 C           42.3300    33.3840   106.3210 c          1 AYA       0.930600
      5 O           41.2030    33.8370   106.6040 o          1 AYA      -0.831800
      6 OXT         42.7360    32.9940   105.2130 o          1 AYA      -0.831800
      7 CT          44.4180    31.1900   107.2120 c          1 AYA       0.668100
      8 OT          43.4040    30.5630   107.4980 o          1 AYA      -0.626100
      9 CM          45.6840    30.4840   106.7870 c3         1 AYA      -0.178100
     10 H           45.3230    32.9710   106.9170 hn         1 AYA       0.286500
     11 HA          42.8110    32.9740   108.3850 h1         1 AYA       0.057700
     12 HB1         42.9540    35.4190   108.0480 hc         1 AYA       0.019367
     13 HB2         44.4770    34.7940   108.6780 hc         1 AYA       0.019367
     14 HB3         44.3330    35.2160   106.9690 hc         1 AYA       0.019367
     15 HM1         45.9320    29.7100   107.5130 hc         1 AYA       0.039700
     16 HM2         45.5160    29.9880   105.8310 hc         1 AYA       0.039700
     17 HM3         46.5420    31.1450   106.6800 hc         1 AYA       0.039700
@<TRIPOS>BOND
     1     1     2 1   
     2     1     7 1   
     3     1    10 1   
     4     2     3 1   
     5     2     4 1   
     6     2    11 1   
     7     3    12 1   
     8     3    13 1   
     9     3    14 1   
    10     4     5 1   
    11     4     6 1   
    12     7     8 2   
    13     7     9 1   
    14     9    15 1   
    15     9    16 1   
    16     9    17 1   
@<TRIPOS>SUBSTRUCTURE
     1 AYA         1 TEMP              0 ****  ****    0 ROOT
