@<TRIPOS>MOLECULE
AYC
   25    24     1     0     0
SMALL
bcc


@<TRIPOS>ATOM
      1 OAD          3.7600    -1.1170     0.8670 o          1 AYC      -0.626100
      2 CAQ          3.5920    -0.0040     0.3850 c          1 AYC       0.666100
      3 CAB          4.6990     1.0210     0.3440 c3         1 AYC      -0.178100
      4 NAP          2.4220     0.3930    -0.1400 ns         1 AYC      -0.559900
      5 CAR          1.2470    -0.4380    -0.1720 c3         1 AYC      -0.007300
      6 CAA          1.2620    -1.4280    -1.3420 c3         1 AYC      -0.099100
      7 CAU          0.0020     0.4380    -0.2200 c          1 AYC       0.560100
      8 CAM         -1.3150    -0.2870    -0.1880 c3         1 AYC      -0.148400
      9 CAL         -2.5120     0.5920     0.1240 c3         1 AYC      -0.204400
     10 CAS         -3.8640    -0.1470     0.1330 c          1 AYC       0.927600
     11 OAG         -4.8620     0.5580     0.3890 o          1 AYC      -0.844300
     12 OAE         -3.8640    -1.3700    -0.1100 o          1 AYC      -0.844300
     13 OXT          0.0910     1.6420    -0.2950 o          1 AYC      -0.552100
     14 HAB1         5.5410     0.6220    -0.2210 hc         1 AYC       0.053700
     15 HAB2         4.4010     1.9670    -0.1050 hc         1 AYC       0.053700
     16 HAB3         5.0500     1.2130     1.3570 hc         1 AYC       0.053700
     17 HAP          2.3350     1.3310    -0.4970 hn         1 AYC       0.328500
     18 HAR          1.1950    -1.0120     0.7590 h1         1 AYC       0.086700
     19 HAA1         0.4020    -2.0940    -1.3070 hc         1 AYC       0.044367
     20 HAA2         1.2550    -0.9020    -2.2970 hc         1 AYC       0.044367
     21 HAA3         2.1600    -2.0410    -1.2940 hc         1 AYC       0.044367
     22 HAM1        -1.4420    -0.7630    -1.1660 hc         1 AYC       0.067700
     23 HAM2        -1.2400    -1.1210     0.5160 hc         1 AYC       0.067700
     24 HAL1        -2.3810     1.0760     1.0970 hc         1 AYC       0.031700
     25 HAL2        -2.5760     1.4100    -0.5980 hc         1 AYC       0.031700
@<TRIPOS>BOND
     1     1     2 2   
     2     2     3 1   
     3     2     4 1   
     4     3    14 1   
     5     3    15 1   
     6     3    16 1   
     7     4     5 1   
     8     4    17 1   
     9     5     6 1   
    10     5     7 1   
    11     5    18 1   
    12     6    19 1   
    13     6    20 1   
    14     6    21 1   
    15     7     8 1   
    16     7    13 2   
    17     8     9 1   
    18     8    22 1   
    19     8    23 1   
    20     9    10 1   
    21     9    24 1   
    22     9    25 1   
    23    10    11 1   
    24    10    12 1   
@<TRIPOS>SUBSTRUCTURE
     1 AYC         1 TEMP              0 ****  ****    0 ROOT
