@<TRIPOS>MOLECULE
AYC
   25    24     1     0     0
SMALL
No Charge or Current Charge


@<TRIPOS>ATOM
      1 OAD          3.3570    -0.9540     1.3020 o          1 AYC      -0.626100
      2 CAQ          3.3470     0.0680     0.6310 c          1 AYC       0.599100
      3 CAB          4.4770     1.0900     0.6740 c3         1 AYC      -0.178100
      4 NAP          2.3110     0.3900    -0.2170 ns         1 AYC      -0.492900
      5 CAR          1.1080    -0.4410    -0.4540 c3         1 AYC      -0.007300
      6 CAA          1.4260    -1.6370    -1.3810 c3         1 AYC      -0.099100
      7 CAU         -0.0600     0.4270    -1.0030 c          1 AYC       0.560100
      8 CAM         -1.4830    -0.1150    -0.7890 c3         1 AYC      -0.148400
      9 CAL         -2.1480     0.4840     0.4840 c3         1 AYC      -0.204400
     10 CAS         -3.5650    -0.0850     0.6740 c          1 AYC       0.717000
     11 OAG         -4.4940     0.4910     0.1290 o          1 AYC      -0.739000
     12 OAE         -3.6870    -1.1210     1.3080 o          1 AYC      -0.739000
     13 OXT          0.1330     1.5060    -1.5590 o          1 AYC      -0.552100
     14 HAB1         4.8520     1.2500    -0.3430 hc         1 AYC       0.053700
     15 HAB2         4.0610     2.0720     0.9250 hc         1 AYC       0.053700
     16 HAB3         5.2810     0.8030     1.3610 hc         1 AYC       0.053700
     17 HAP          2.3920     1.2700    -0.7180 hn         1 AYC       0.328500
     18 HAR          0.7710    -0.8370     0.5140 h1         1 AYC       0.086700
     19 HAA1         0.5420    -2.2720    -1.5220 hc         1 AYC       0.044367
     20 HAA2         1.7550    -1.2860    -2.3670 hc         1 AYC       0.044367
     21 HAA3         2.2210    -2.2610    -0.9560 hc         1 AYC       0.044367
     22 HAM1        -2.0970     0.1370    -1.6630 hc         1 AYC       0.067700
     23 HAM2        -1.4420    -1.2020    -0.6550 hc         1 AYC       0.067700
     24 HAL1        -1.5060     0.1940     1.3250 hc         1 AYC       0.031700
     25 HAL2        -2.1940     1.5680     0.3190 hc         1 AYC       0.031700
@<TRIPOS>BOND
     1     1     2 2   
     2     2     3 1   
     3     2     4 1   
     4     3    14 1   
     5     3    15 1   
     6     3    16 1   
     7     4     5 1   
     8     4    17 1   
     9     5     6 1   
    10     5     7 1   
    11     5    18 1   
    12     6    19 1   
    13     6    20 1   
    14     6    21 1   
    15     7     8 1   
    16     7    13 2   
    17     8     9 1   
    18     8    22 1   
    19     8    23 1   
    20     9    10 1   
    21     9    24 1   
    22     9    25 1   
    23    10    11 1   
    24    10    12 1   
@<TRIPOS>SUBSTRUCTURE
     1 AYC         1 TEMP              0 ****  ****    0 ROOT
