@<TRIPOS>MOLECULE
AYE
   11    10     1     0     0
SMALL
abcg2


@<TRIPOS>ATOM
      1 C2          -0.6750    -0.2440    -0.3350 c2         1 AYE      -0.213200
      2 C3          -1.8110    -0.0470     0.3230 c2         1 AYE      -0.323000
      3 C1           0.5760     0.5530    -0.1350 c3         1 AYE       0.179000
      4 N1           1.6970    -0.3290     0.1640 n8         1 AYE      -0.995200
      5 H2          -0.6150    -1.0350    -1.0780 ha         1 AYE       0.180000
      6 H3          -2.6910    -0.6480     0.1310 ha         1 AYE       0.160500
      7 H3A         -1.9060     0.7250     1.0780 ha         1 AYE       0.160500
      8 H1           0.8070     1.0780    -1.0670 h1         1 AYE       0.031700
      9 H1A          0.3980     1.3290     0.6220 h1         1 AYE       0.031700
     10 HN1          2.5500     0.2130     0.2000 hn         1 AYE       0.393500
     11 HN1A         1.5770    -0.7200     1.0900 hn         1 AYE       0.393500
@<TRIPOS>BOND
     1     1     2 2   
     2     1     3 1   
     3     1     5 1   
     4     2     6 1   
     5     2     7 1   
     6     3     4 1   
     7     3     8 1   
     8     3     9 1   
     9     4    10 1   
    10     4    11 1   
@<TRIPOS>SUBSTRUCTURE
     1 AYE         1 TEMP              0 ****  ****    0 ROOT
