@<TRIPOS>MOLECULE
AYE
   11    10     1     0     0
SMALL
No Charge or Current Charge


@<TRIPOS>ATOM
      1 C2          -0.7060    -0.1410    -0.4810 c2         1 AYE      -0.213200
      2 C3          -1.6770    -0.1870     0.4480 c2         1 AYE      -0.323000
      3 C1           0.6160     0.5700    -0.3330 c3         1 AYE       0.179000
      4 N1           1.5640    -0.3160     0.3500 n8         1 AYE      -0.995200
      5 H2          -0.8340    -0.6400    -1.4440 ha         1 AYE       0.180000
      6 H3          -2.6120    -0.7210     0.2700 ha         1 AYE       0.160500
      7 H3A         -1.5710     0.3070     1.4150 ha         1 AYE       0.160500
      8 H1           1.0200     0.8400    -1.3190 h1         1 AYE       0.031700
      9 H1A          0.4910     1.4880     0.2590 h1         1 AYE       0.031700
     10 HN1          2.4250     0.2080     0.5480 hn         1 AYE       0.393500
     11 HN1A         1.1900    -0.5320     1.2810 hn         1 AYE       0.393500
@<TRIPOS>BOND
     1     1     2 2   
     2     1     3 1   
     3     1     5 1   
     4     2     6 1   
     5     2     7 1   
     6     3     4 1   
     7     3     8 1   
     8     3     9 1   
     9     4    10 1   
    10     4    11 1   
@<TRIPOS>SUBSTRUCTURE
     1 AYE         1 TEMP              0 ****  ****    0 ROOT
