@<TRIPOS>MOLECULE
AYG
   35    36     1     0     0
SMALL
No Charge or Current Charge


@<TRIPOS>ATOM
      1 CA1          2.0410    -2.3470     0.5790 c3         1 AYG       0.142200
      2 CA2         -0.0670     0.6060     0.2640 cc         1 AYG       0.022400
      3 CA3          3.5790     0.4400     0.6580 c3         1 AYG      -0.052000
      4 CB1          2.6030    -2.8240    -0.7760 c3         1 AYG      -0.094100
      5 CB2         -1.2700     1.2470     0.1040 cf         1 AYG      -0.101200
      6 CG2         -2.6810     0.8170    -0.0630 ca         1 AYG      -0.074800
      7 CD1         -3.6800     1.8060    -0.2030 ca         1 AYG      -0.052500
      8 CD2         -3.0690    -0.5420    -0.0870 ca         1 AYG      -0.052500
      9 CE1         -5.0290     1.4460    -0.3630 ca         1 AYG      -0.189500
     10 CE2         -4.4200    -0.8990    -0.2470 ca         1 AYG      -0.189500
     11 CZ          -5.3990     0.0950    -0.3850 ca         1 AYG       0.127100
     12 OH          -6.7080    -0.2460    -0.5410 oh         1 AYG      -0.543100
     13 C1           1.4100    -0.9350     0.4720 cd         1 AYG       0.487900
     14 N1           1.1500    -3.4130     1.1440 n8         1 AYG      -0.984200
     15 C2           1.2250     1.3100     0.4080 c          1 AYG       0.541200
     16 N2           0.0910    -0.7650     0.3090 nc         1 AYG      -0.640300
     17 O2           1.4810     2.5090     0.4150 o          1 AYG      -0.505000
     18 C3           4.2470     1.1010    -0.5720 c          1 AYG       0.714000
     19 N3           2.1050     0.2590     0.5400 n          1 AYG      -0.311300
     20 O3           3.9590     0.6810    -1.6840 o          1 AYG      -0.715000
     21 OXT          5.0320     2.0190    -0.3790 o          1 AYG      -0.715000
     22 HA1          2.8850    -2.2670     1.2760 h1         1 AYG       0.030700
     23 HA31         4.0680    -0.5270     0.8170 h1         1 AYG       0.040200
     24 HA32         3.7810     1.0630     1.5380 h1         1 AYG       0.040200
     25 HB11         1.8010    -2.9150    -1.5190 hc         1 AYG       0.054700
     26 HB12         3.3410    -2.1100    -1.1580 hc         1 AYG       0.054700
     27 HB13         3.0970    -3.7980    -0.6760 hc         1 AYG       0.054700
     28 HB2         -1.1530     2.3320     0.0980 ha         1 AYG       0.184000
     29 HD1         -3.4120     2.8610    -0.1890 ha         1 AYG       0.135000
     30 HD2         -2.3340    -1.3340     0.0180 ha         1 AYG       0.135000
     31 HE1         -5.7870     2.2180    -0.4700 ha         1 AYG       0.111000
     32 HE2         -4.6960    -1.9500    -0.2630 ha         1 AYG       0.111000
     33 HOH         -6.7750    -1.2250    -0.5320 ho         1 AYG       0.458000
     34 HN11         1.7100    -4.2480     1.3500 hn         1 AYG       0.388000
     35 H2           0.8060    -3.1110     2.0630 hn         1 AYG       0.388000
@<TRIPOS>BOND
     1     1     4 1   
     2     1    13 1   
     3     1    14 1   
     4     1    22 1   
     5     2     5 2   
     6     2    15 1   
     7     2    16 1   
     8     3    18 1   
     9     3    19 1   
    10     3    23 1   
    11     3    24 1   
    12     4    25 1   
    13     4    26 1   
    14     4    27 1   
    15     5     6 1   
    16     5    28 1   
    17     6     7 ar  
    18     6     8 ar  
    19     7     9 ar  
    20     7    29 1   
    21     8    10 ar  
    22     8    30 1   
    23     9    11 ar  
    24     9    31 1   
    25    10    11 ar  
    26    10    32 1   
    27    11    12 1   
    28    12    33 1   
    29    13    16 2   
    30    13    19 1   
    31    14    34 1   
    32    14    35 1   
    33    15    17 2   
    34    15    19 1   
    35    18    20 1   
    36    18    21 1   
@<TRIPOS>SUBSTRUCTURE
     1 AYG         1 TEMP              0 ****  ****    0 ROOT
