@<TRIPOS>MOLECULE
AYG
   35    36     1     0     0
SMALL
abcg2


@<TRIPOS>ATOM
      1 CA1          2.0010    -2.2480     0.5520 c3         1 AYG       0.142200
      2 CA2         -0.1080     0.6490     0.2220 cc         1 AYG       0.022400
      3 CA3          3.4820     0.4480     0.7740 c3         1 AYG      -0.052000
      4 CB1          2.5940    -2.6110    -0.8110 c3         1 AYG      -0.094100
      5 CB2         -1.2600     1.3260     0.0520 cf         1 AYG      -0.101200
      6 CG2         -2.6070     0.8200    -0.0980 ca         1 AYG      -0.074800
      7 CD1         -3.6440     1.7390    -0.3080 ca         1 AYG      -0.052500
      8 CD2         -2.9490    -0.5380    -0.0170 ca         1 AYG      -0.052500
      9 CE1         -4.9600     1.3390    -0.4260 ca         1 AYG      -0.189500
     10 CE2         -4.2620    -0.9490    -0.1270 ca         1 AYG      -0.189500
     11 CZ          -5.2810    -0.0150    -0.3260 ca         1 AYG       0.127100
     12 OH          -6.5740    -0.3610    -0.4120 oh         1 AYG      -0.543100
     13 C1           1.3440    -0.9040     0.4720 cd         1 AYG       0.487900
     14 N1           1.0220    -3.2500     0.9320 n8         1 AYG      -0.984200
     15 C2           1.1970     1.3170     0.4290 c          1 AYG       0.541200
     16 N2           0.0840    -0.7250     0.2610 nc         1 AYG      -0.640300
     17 O2           1.4840     2.4950     0.4820 o          1 AYG      -0.505000
     18 C3           4.2300     0.7710    -0.5420 c          1 AYG       0.714000
     19 N3           2.0620     0.2640     0.6130 n          1 AYG      -0.311300
     20 O3           3.5620     0.7980    -1.5900 o          1 AYG      -0.715000
     21 OXT          5.4500     0.9690    -0.3940 o          1 AYG      -0.715000
     22 HA1          2.8280    -2.1730     1.2720 h1         1 AYG       0.030700
     23 HA31         3.9120    -0.4380     1.2410 h1         1 AYG       0.040200
     24 HA32         3.6400     1.2670     1.4780 h1         1 AYG       0.040200
     25 HB11         1.7890    -2.7550    -1.5320 hc         1 AYG       0.054700
     26 HB12         3.2520    -1.8320    -1.1910 hc         1 AYG       0.054700
     27 HB13         3.1650    -3.5370    -0.7380 hc         1 AYG       0.054700
     28 HB2         -1.1630     2.4080     0.0380 ha         1 AYG       0.184000
     29 HD1         -3.4120     2.7950    -0.3780 ha         1 AYG       0.135000
     30 HD2         -2.1740    -1.2760     0.1370 ha         1 AYG       0.135000
     31 HE1         -5.7440     2.0690    -0.5840 ha         1 AYG       0.111000
     32 HE2         -4.5000    -2.0050    -0.0510 ha         1 AYG       0.111000
     33 HOH         -6.6760    -1.3170    -0.3480 ho         1 AYG       0.458000
     34 HN11         1.4960    -4.1420     1.0130 hn         1 AYG       0.388000
     35 H2           0.6520    -3.0450     1.8510 hn         1 AYG       0.388000
@<TRIPOS>BOND
     1     1     4 1   
     2     1    13 1   
     3     1    14 1   
     4     1    22 1   
     5     2     5 2   
     6     2    15 1   
     7     2    16 1   
     8     3    18 1   
     9     3    19 1   
    10     3    23 1   
    11     3    24 1   
    12     4    25 1   
    13     4    26 1   
    14     4    27 1   
    15     5     6 1   
    16     5    28 1   
    17     6     7 ar  
    18     6     8 ar  
    19     7     9 ar  
    20     7    29 1   
    21     8    10 ar  
    22     8    30 1   
    23     9    11 ar  
    24     9    31 1   
    25    10    11 ar  
    26    10    32 1   
    27    11    12 1   
    28    12    33 1   
    29    13    16 2   
    30    13    19 1   
    31    14    34 1   
    32    14    35 1   
    33    15    17 2   
    34    15    19 1   
    35    18    20 1   
    36    18    21 1   
@<TRIPOS>SUBSTRUCTURE
     1 AYG         1 TEMP              0 ****  ****    0 ROOT
