@<TRIPOS>MOLECULE
AYH
   83    84     1     0     0
SMALL
No Charge or Current Charge


@<TRIPOS>ATOM
      1 N1         -22.4890    17.4480    -2.2730 ns         1 AYH      -0.496900
      2 C3         -22.8790    16.0770    -2.6320 c3         1 AYH       0.111700
      3 C5         -24.3180    15.7460    -2.1270 c3         1 AYH       0.156300
      4 O7         -24.4100    15.9440    -0.7050 oh         1 AYH      -0.676000
      5 C9         -25.4040    16.6120    -2.8250 c3         1 AYH      -0.086400
      6 C12        -26.8690    16.2620    -2.4350 c3         1 AYH      -0.136700
      7 C14        -27.8950    17.1570    -3.1700 c3         1 AYH      -0.079100
      8 C18        -27.1710    14.7670    -2.6650 c          1 AYH       0.587100
      9 O19        -27.1450    14.2490    -3.7730 o          1 AYH      -0.606100
     10 N20        -27.4640    14.0500    -1.5260 ns         1 AYH      -0.512900
     11 C22        -27.6960    12.6050    -1.4850 c3         1 AYH       0.096000
     12 C25        -26.3720    11.8110    -1.5420 c3         1 AYH      -0.100400
     13 C28        -26.5500    10.2790    -1.4240 c3         1 AYH      -0.070400
     14 C31        -27.3210     9.6390    -2.5970 c3         1 AYH      -0.092100
     15 C35        -21.8150    15.0610    -2.1390 c3         1 AYH      -0.047100
     16 C38        -20.4300    15.3190    -2.7260 ca         1 AYH      -0.077300
     17 C39        -20.1200    14.8750    -4.0270 ca         1 AYH      -0.100500
     18 C41        -18.8520    15.1260    -4.5800 ca         1 AYH      -0.112500
     19 C43        -17.8870    15.8240    -3.8360 ca         1 AYH      -0.113000
     20 C45        -18.1880    16.2690    -2.5380 ca         1 AYH      -0.112500
     21 C47        -19.4550    16.0150    -1.9830 ca         1 AYH      -0.100500
     22 C49        -21.8630    18.3420    -3.1100 c          1 AYH       0.600100
     23 O50        -21.6360    18.0920    -4.2860 o          1 AYH      -0.617100
     24 C51        -21.4700    19.6890    -2.4720 c6         1 AYH      -0.137700
     25 C53        -19.9350    19.8510    -2.3130 c6         1 AYH      -0.064400
     26 C56        -19.5700    21.1800    -1.5740 c6         1 AYH      -0.075700
     27 C58        -20.2300    22.3860    -2.3190 c6         1 AYH      -0.067400
     28 C61        -21.7690    22.2230    -2.4180 c6         1 AYH      -0.075400
     29 C64        -22.1580    20.9090    -3.1360 c6         1 AYH      -0.062400
     30 C67        -18.0150    21.3480    -1.3040 c3         1 AYH       0.146400
     31 N68        -17.4830    20.1630    -0.6100 ns         1 AYH      -0.509900
     32 C70        -17.8270    19.6960     0.6440 c          1 AYH       0.596100
     33 O71        -18.6480    20.2320     1.3710 o          1 AYH      -0.620100
     34 C72        -17.0850    18.4330     1.0630 c3         1 AYH      -0.178100
     35 C76        -17.1970    21.4680    -2.6180 c3         1 AYH      -0.103600
     36 C80        -17.7070    22.6070    -0.4450 c3         1 AYH      -0.103600
     37 HN1        -22.6700    17.7540    -1.3250 hn         1 AYH       0.321500
     38 H3         -22.9050    16.0020    -3.7280 h1         1 AYH       0.090700
     39 H5         -24.5180    14.6930    -2.3700 h1         1 AYH       0.043700
     40 HO7        -23.8960    15.2270    -0.2750 ho         1 AYH       0.438000
     41 H9         -25.2200    17.6710    -2.6020 hc         1 AYH       0.070200
     42 H9A        -25.2920    16.5020    -3.9110 hc         1 AYH       0.070200
     43 H12        -26.9810    16.4680    -1.3630 hc         1 AYH       0.050700
     44 H14        -28.9160    16.9140    -2.8510 hc         1 AYH       0.045367
     45 H14A       -27.7130    18.2160    -2.9510 hc         1 AYH       0.045367
     46 H14B       -27.8320    17.0150    -4.2560 hc         1 AYH       0.045367
     47 HN20       -27.4520    14.5620    -0.6520 hn         1 AYH       0.306500
     48 H22        -28.2290    12.3620    -0.5560 h1         1 AYH       0.062200
     49 H22A       -28.3410    12.3240    -2.3290 h1         1 AYH       0.062200
     50 H25        -25.8460    12.0410    -2.4760 hc         1 AYH       0.038700
     51 H25A       -25.7240    12.1500    -0.7240 hc         1 AYH       0.038700
     52 H28        -25.5570     9.8160    -1.3650 hc         1 AYH       0.039200
     53 H28A       -27.0620    10.0430    -0.4820 hc         1 AYH       0.039200
     54 H31        -27.3450     8.5490    -2.4850 hc         1 AYH       0.036033
     55 H31A       -28.3560     9.9980    -2.6320 hc         1 AYH       0.036033
     56 H31B       -26.8380     9.8740    -3.5530 hc         1 AYH       0.036033
     57 H35        -21.7660    15.0860    -1.0440 hc         1 AYH       0.055700
     58 H35A       -22.1410    14.0480    -2.4050 hc         1 AYH       0.055700
     59 H39        -20.8640    14.3390    -4.6120 ha         1 AYH       0.113500
     60 H41        -18.6210    14.7820    -5.5850 ha         1 AYH       0.109500
     61 H43        -16.9070    16.0210    -4.2650 ha         1 AYH       0.111000
     62 H45        -17.4410    16.8110    -1.9650 ha         1 AYH       0.109500
     63 H47        -19.6810    16.3680    -0.9800 ha         1 AYH       0.113500
     64 H51        -21.8600    19.6460    -1.4450 hc         1 AYH       0.057700
     65 H53        -19.5410    18.9860    -1.7650 hc         1 AYH       0.048700
     66 H53A       -19.4710    19.8270    -3.3080 hc         1 AYH       0.048700
     67 H56        -20.0390    21.1370    -0.5830 hc         1 AYH       0.075700
     68 H58        -20.0160    23.3280    -1.7990 hc         1 AYH       0.040200
     69 H58A       -19.8150    22.4860    -3.3310 hc         1 AYH       0.040200
     70 H61        -22.2070    22.2370    -1.4100 hc         1 AYH       0.041700
     71 H61A       -22.2000    23.0790    -2.9550 hc         1 AYH       0.041700
     72 H64        -21.8650    20.9690    -4.1940 hc         1 AYH       0.053700
     73 H64A       -23.2500    20.7830    -3.1200 hc         1 AYH       0.053700
     74 HN68       -16.7830    19.6190    -1.0990 hn         1 AYH       0.306500
     75 H72        -17.3400    18.1110     2.0790 hc         1 AYH       0.058033
     76 H72A       -17.2910    17.6430     0.3320 hc         1 AYH       0.058033
     77 H72B       -16.0080    18.5890     0.9410 hc         1 AYH       0.058033
     78 H76        -16.1280    21.5770    -2.4000 hc         1 AYH       0.045533
     79 H76A       -17.3140    20.5800    -3.2490 hc         1 AYH       0.045533
     80 H76B       -17.5020    22.3440    -3.2020 hc         1 AYH       0.045533
     81 H80        -16.6620    22.6050    -0.1120 hc         1 AYH       0.045533
     82 H80A       -17.8650    23.5280    -1.0170 hc         1 AYH       0.045533
     83 H80B       -18.3460    22.6550     0.4440 hc         1 AYH       0.045533
@<TRIPOS>BOND
     1     1     2 1   
     2     1    22 1   
     3     1    37 1   
     4     2     3 1   
     5     2    15 1   
     6     2    38 1   
     7     3     4 1   
     8     3     5 1   
     9     3    39 1   
    10     4    40 1   
    11     5     6 1   
    12     5    41 1   
    13     5    42 1   
    14     6     7 1   
    15     6     8 1   
    16     6    43 1   
    17     7    44 1   
    18     7    45 1   
    19     7    46 1   
    20     8     9 2   
    21     8    10 1   
    22    10    11 1   
    23    10    47 1   
    24    11    12 1   
    25    11    48 1   
    26    11    49 1   
    27    12    13 1   
    28    12    50 1   
    29    12    51 1   
    30    13    14 1   
    31    13    52 1   
    32    13    53 1   
    33    14    54 1   
    34    14    55 1   
    35    14    56 1   
    36    15    16 1   
    37    15    57 1   
    38    15    58 1   
    39    16    17 ar  
    40    16    21 ar  
    41    17    18 ar  
    42    17    59 1   
    43    18    19 ar  
    44    18    60 1   
    45    19    20 ar  
    46    19    61 1   
    47    20    21 ar  
    48    20    62 1   
    49    21    63 1   
    50    22    23 2   
    51    22    24 1   
    52    24    25 1   
    53    24    29 1   
    54    24    64 1   
    55    25    26 1   
    56    25    65 1   
    57    25    66 1   
    58    26    27 1   
    59    26    30 1   
    60    26    67 1   
    61    27    28 1   
    62    27    68 1   
    63    27    69 1   
    64    28    29 1   
    65    28    70 1   
    66    28    71 1   
    67    29    72 1   
    68    29    73 1   
    69    30    31 1   
    70    30    35 1   
    71    30    36 1   
    72    31    32 1   
    73    31    74 1   
    74    32    33 2   
    75    32    34 1   
    76    34    75 1   
    77    34    76 1   
    78    34    77 1   
    79    35    78 1   
    80    35    79 1   
    81    35    80 1   
    82    36    81 1   
    83    36    82 1   
    84    36    83 1   
@<TRIPOS>SUBSTRUCTURE
     1 AYH         1 TEMP              0 ****  ****    0 ROOT
