@<TRIPOS>MOLECULE
AYH
   83    84     1     0     0
SMALL
abcg2


@<TRIPOS>ATOM
      1 N1         -22.5800    17.6110    -2.3690 ns         1 AYH      -0.496900
      2 C3         -22.9100    16.2660    -2.8080 c3         1 AYH       0.111700
      3 C5         -24.2870    15.8430    -2.2870 c3         1 AYH       0.156300
      4 O7         -24.2820    15.9780    -0.8550 oh         1 AYH      -0.676000
      5 C9         -25.4050    16.6690    -2.9130 c3         1 AYH      -0.086400
      6 C12        -26.8180    16.3010    -2.4370 c3         1 AYH      -0.136700
      7 C14        -27.8750    17.1300    -3.1700 c3         1 AYH      -0.079100
      8 C18        -27.0560    14.8130    -2.6540 c          1 AYH       0.587100
      9 O19        -27.0250    14.3120    -3.7820 o          1 AYH      -0.606100
     10 N20        -27.2740    14.0940    -1.5370 ns         1 AYH      -0.512900
     11 C22        -27.3510    12.6430    -1.5000 c3         1 AYH       0.096000
     12 C25        -26.0410    12.0200    -1.0170 c3         1 AYH      -0.100400
     13 C28        -26.1000    10.4960    -0.8930 c3         1 AYH      -0.070400
     14 C31        -26.2680     9.7700    -2.2270 c3         1 AYH      -0.092100
     15 C35        -21.8120    15.2750    -2.3920 c3         1 AYH      -0.047100
     16 C38        -20.4430    15.6680    -2.8870 ca         1 AYH      -0.077300
     17 C39        -20.1830    15.7820    -4.2560 ca         1 AYH      -0.100500
     18 C41        -18.9320    16.1750    -4.7150 ca         1 AYH      -0.112500
     19 C43        -17.9090    16.4510    -3.8120 ca         1 AYH      -0.113000
     20 C45        -18.1520    16.3290    -2.4490 ca         1 AYH      -0.112500
     21 C47        -19.4110    15.9480    -1.9930 ca         1 AYH      -0.100500
     22 C49        -22.3170    18.6420    -3.1980 c          1 AYH       0.600100
     23 O50        -22.4590    18.5720    -4.4210 o          1 AYH      -0.617100
     24 C51        -21.7800    19.8850    -2.5080 c6         1 AYH      -0.137700
     25 C53        -20.2510    19.7540    -2.3750 c6         1 AYH      -0.064400
     26 C56        -19.6540    20.9660    -1.6520 c6         1 AYH      -0.075700
     27 C58        -20.0130    22.2480    -2.4120 c6         1 AYH      -0.067400
     28 C61        -21.5300    22.3880    -2.5630 c6         1 AYH      -0.075400
     29 C64        -22.1510    21.1700    -3.2440 c6         1 AYH      -0.062400
     30 C67        -18.1360    20.8050    -1.3580 c3         1 AYH       0.146400
     31 N68        -17.9150    19.5740    -0.5650 ns         1 AYH      -0.509900
     32 C70        -18.4210    19.2760     0.6460 c          1 AYH       0.596100
     33 O71        -19.1400    20.0360     1.3010 o          1 AYH      -0.620100
     34 C72        -18.0620    17.9060     1.1830 c3         1 AYH      -0.178100
     35 C76        -17.3100    20.6270    -2.6350 c3         1 AYH      -0.103600
     36 C80        -17.5920    22.0080    -0.5740 c3         1 AYH      -0.103600
     37 HN1        -22.4260    17.7470    -1.3810 hn         1 AYH       0.321500
     38 H3         -22.9640    16.3060    -3.8950 h1         1 AYH       0.090700
     39 H5         -24.4210    14.7890    -2.5460 h1         1 AYH       0.043700
     40 HO7        -24.7230    15.2140    -0.4670 ho         1 AYH       0.438000
     41 H9         -25.2340    17.7260    -2.6950 hc         1 AYH       0.070200
     42 H9A        -25.3550    16.5470    -3.9980 hc         1 AYH       0.070200
     43 H12        -26.8860    16.5140    -1.3670 hc         1 AYH       0.050700
     44 H14        -28.8780    16.9080    -2.7990 hc         1 AYH       0.045367
     45 H14A       -27.6840    18.1940    -3.0230 hc         1 AYH       0.045367
     46 H14B       -27.8500    16.9210    -4.2400 hc         1 AYH       0.045367
     47 HN20       -27.2560    14.5830    -0.6560 hn         1 AYH       0.306500
     48 H22        -28.1690    12.3560    -0.8350 h1         1 AYH       0.062200
     49 H22A       -27.6000    12.3050    -2.5030 h1         1 AYH       0.062200
     50 H25        -25.2400    12.3080    -1.7060 hc         1 AYH       0.038700
     51 H25A       -25.7930    12.4550    -0.0440 hc         1 AYH       0.038700
     52 H28        -25.1800    10.1520    -0.4120 hc         1 AYH       0.039200
     53 H28A       -26.9200    10.2230    -0.2200 hc         1 AYH       0.039200
     54 H31        -26.2460     8.6870    -2.0880 hc         1 AYH       0.036033
     55 H31A       -27.2140    10.0210    -2.7100 hc         1 AYH       0.036033
     56 H31B       -25.4620    10.0350    -2.9170 hc         1 AYH       0.036033
     57 H35        -21.7980    15.1950    -1.3040 hc         1 AYH       0.055700
     58 H35A       -22.0860    14.2920    -2.7830 hc         1 AYH       0.055700
     59 H39        -20.9710    15.5690    -4.9690 ha         1 AYH       0.113500
     60 H41        -18.7540    16.2650    -5.7800 ha         1 AYH       0.109500
     61 H43        -16.9330    16.7560    -4.1670 ha         1 AYH       0.111000
     62 H45        -17.3610    16.5330    -1.7380 ha         1 AYH       0.109500
     63 H47        -19.5960    15.8730    -0.9280 ha         1 AYH       0.113500
     64 H51        -22.2020    19.9220    -1.4970 hc         1 AYH       0.057700
     65 H53        -20.0080    18.8340    -1.8430 hc         1 AYH       0.048700
     66 H53A       -19.8240    19.6660    -3.3780 hc         1 AYH       0.048700
     67 H56        -20.1350    21.0260    -0.6720 hc         1 AYH       0.075700
     68 H58        -19.6200    23.1240    -1.8950 hc         1 AYH       0.040200
     69 H58A       -19.5550    22.2320    -3.4060 hc         1 AYH       0.040200
     70 H61        -21.9760    22.5170    -1.5700 hc         1 AYH       0.041700
     71 H61A       -21.7650    23.2910    -3.1320 hc         1 AYH       0.041700
     72 H64        -21.7900    21.1020    -4.2740 hc         1 AYH       0.053700
     73 H64A       -23.2380    21.2730    -3.2940 hc         1 AYH       0.053700
     74 HN68       -17.3700    18.8540    -1.0110 hn         1 AYH       0.306500
     75 H72        -17.7180    18.0120     2.2120 hc         1 AYH       0.058033
     76 H72A       -18.9650    17.2920     1.1930 hc         1 AYH       0.058033
     77 H72B       -17.2980    17.3980     0.5970 hc         1 AYH       0.058033
     78 H76        -16.2500    20.5450    -2.3840 hc         1 AYH       0.045533
     79 H76A       -17.6010    19.7290    -3.1800 hc         1 AYH       0.045533
     80 H76B       -17.4350    21.4850    -3.2930 hc         1 AYH       0.045533
     81 H80        -16.5700    21.8010    -0.2530 hc         1 AYH       0.045533
     82 H80A       -17.5760    22.8990    -1.2000 hc         1 AYH       0.045533
     83 H80B       -18.1980    22.2090     0.3070 hc         1 AYH       0.045533
@<TRIPOS>BOND
     1     1     2 1   
     2     1    22 1   
     3     1    37 1   
     4     2     3 1   
     5     2    15 1   
     6     2    38 1   
     7     3     4 1   
     8     3     5 1   
     9     3    39 1   
    10     4    40 1   
    11     5     6 1   
    12     5    41 1   
    13     5    42 1   
    14     6     7 1   
    15     6     8 1   
    16     6    43 1   
    17     7    44 1   
    18     7    45 1   
    19     7    46 1   
    20     8     9 2   
    21     8    10 1   
    22    10    11 1   
    23    10    47 1   
    24    11    12 1   
    25    11    48 1   
    26    11    49 1   
    27    12    13 1   
    28    12    50 1   
    29    12    51 1   
    30    13    14 1   
    31    13    52 1   
    32    13    53 1   
    33    14    54 1   
    34    14    55 1   
    35    14    56 1   
    36    15    16 1   
    37    15    57 1   
    38    15    58 1   
    39    16    17 ar  
    40    16    21 ar  
    41    17    18 ar  
    42    17    59 1   
    43    18    19 ar  
    44    18    60 1   
    45    19    20 ar  
    46    19    61 1   
    47    20    21 ar  
    48    20    62 1   
    49    21    63 1   
    50    22    23 2   
    51    22    24 1   
    52    24    25 1   
    53    24    29 1   
    54    24    64 1   
    55    25    26 1   
    56    25    65 1   
    57    25    66 1   
    58    26    27 1   
    59    26    30 1   
    60    26    67 1   
    61    27    28 1   
    62    27    68 1   
    63    27    69 1   
    64    28    29 1   
    65    28    70 1   
    66    28    71 1   
    67    29    72 1   
    68    29    73 1   
    69    30    31 1   
    70    30    35 1   
    71    30    36 1   
    72    31    32 1   
    73    31    74 1   
    74    32    33 2   
    75    32    34 1   
    76    34    75 1   
    77    34    76 1   
    78    34    77 1   
    79    35    78 1   
    80    35    79 1   
    81    35    80 1   
    82    36    81 1   
    83    36    82 1   
    84    36    83 1   
@<TRIPOS>SUBSTRUCTURE
     1 AYH         1 TEMP              0 ****  ****    0 ROOT
