@<TRIPOS>MOLECULE
AYI
   67    68     1     0     0
SMALL
No Charge or Current Charge


@<TRIPOS>ATOM
      1 CAB         -4.1170    -3.3110     2.9880 c3         1 AYI       0.096300
      2 OAH         -3.3400    -0.6620     3.7390 o          1 AYI      -0.593100
      3 OAJ          1.6570    -2.2040     2.6240 o          1 AYI      -0.635100
      4 OAK         -5.7900    -0.4360    -3.4390 o          1 AYI      -0.895833
      5 OAL         -4.4490     1.4080    -4.2960 o          1 AYI      -0.895833
      6 OAM         -6.8040     1.7350    -3.8150 o          1 AYI      -0.895833
      7 CAN         -4.0740     1.6200     0.2070 ca         1 AYI      -0.219000
      8 CAO         -3.1780     0.1640    -1.5150 ca         1 AYI      -0.219000
      9 CAP         -3.0260     1.2550     1.0670 ca         1 AYI      -0.061500
     10 CAQ         -2.1280    -0.2030    -0.6560 ca         1 AYI      -0.061500
     11 NAT         -2.8290    -2.6550     2.7630 ns         1 AYI      -0.504900
     12 OAW         -5.2130     1.4830    -1.8690 os         1 AYI      -0.402500
     13 CAZ         -2.5390    -1.3640     3.1390 c          1 AYI       0.644100
     14 CBB          1.1110    -1.6280     1.6950 c          1 AYI       0.641100
     15 CBC         -4.1620     1.0790    -1.0850 ca         1 AYI       0.331100
     16 CBD         -2.0520     0.3330     0.6440 ca         1 AYI      -0.231300
     17 CBH         -1.1400    -0.8960     2.8070 cx         1 AYI      -0.209700
     18 CBI         -0.3800    -1.4560     1.6070 cx         1 AYI      -0.257700
     19 CBJ         -0.9290    -0.0450     1.5710 cx         1 AYI       0.071600
     20 PBK         -5.5630     1.0360    -3.3780 p5         1 AYI       1.250900
     21 CAA          3.6390    -3.2250    -2.9220 c3         1 AYI      -0.084100
     22 OAI          3.0390     1.1510    -0.4300 o          1 AYI      -0.582100
     23 CAR          3.0870    -2.2020    -1.9070 c3         1 AYI      -0.075400
     24 CAC          3.4250    -3.6840     0.1800 c3         1 AYI      -0.085100
     25 NAV          1.7950    -1.0860     0.6370 ns         1 AYI      -0.494900
     26 CBA          3.7830     0.2530    -0.0560 c          1 AYI       0.592100
     27 CBE          3.7010    -2.3080    -0.4780 c3         1 AYI      -0.063700
     28 CBG          3.2650    -1.1270     0.4500 c3         1 AYI       0.037700
     29 C            7.1480     1.1900    -1.3340 c          1 AYI       0.589100
     30 N            5.1550     0.4000    -0.0580 ns         1 AYI      -0.488900
     31 CA           5.8880     1.6050    -0.5130 c3         1 AYI       0.043700
     32 CB           6.2350     2.5430     0.6770 c3         1 AYI      -0.175400
     33 CG           4.9910     3.0800     1.3840 c          1 AYI       0.603100
     34 OD1          4.3470     4.0270     0.9670 o          1 AYI      -0.578100
     35 ND2          4.6460     2.4690     2.5370 nt         1 AYI      -0.612000
     36 HAB         -4.0840    -4.3290     2.5790 h1         1 AYI       0.037367
     37 HABA        -4.3250    -3.3590     4.0640 h1         1 AYI       0.037367
     38 HAN         -4.8260     2.3290     0.5420 ha         1 AYI       0.131500
     39 HAO         -3.2130    -0.2670    -2.5100 ha         1 AYI       0.131500
     40 HAP         -2.9720     1.6880     2.0640 ha         1 AYI       0.062500
     41 HAQ         -1.3740    -0.9030    -1.0080 ha         1 AYI       0.062500
     42 HBH         -0.5500    -0.6280     3.6790 hc         1 AYI       0.095700
     43 HBI         -0.8780    -2.1910     0.9820 hc         1 AYI       0.094700
     44 HBJ         -0.2090     0.7660     1.6720 hc         1 AYI       0.076700
     45 H31         -4.9120    -2.7450     2.4860 h1         1 AYI       0.037367
     46 H32         -2.0930    -3.1650     2.2930 hn         1 AYI       0.302500
     47 HAC          2.3500    -3.8950     0.2190 hc         1 AYI       0.037033
     48 HAA          3.2360    -3.0210    -3.9220 hc         1 AYI       0.027033
     49 HAAA         4.7330    -3.1660    -2.9780 hc         1 AYI       0.027033
     50 HAAB         3.3570    -4.2480    -2.6500 hc         1 AYI       0.027033
     51 HACA         3.9130    -4.4930    -0.3760 hc         1 AYI       0.037033
     52 HACB         3.8170    -3.7080     1.2040 hc         1 AYI       0.037033
     53 HAR          3.2740    -1.1990    -2.3090 hc         1 AYI       0.052200
     54 HARA         1.9970    -2.3160    -1.8500 hc         1 AYI       0.052200
     55 HNAV         1.2370    -0.5980    -0.0540 hn         1 AYI       0.336500
     56 HBE          4.7910    -2.2410    -0.5920 hc         1 AYI       0.037700
     57 HBG          3.7360    -1.2720     1.4310 h1         1 AYI       0.087700
     58 HN           5.7020    -0.4090     0.2190 hn         1 AYI       0.313500
     59 HA           5.2520     2.1610    -1.2160 h1         1 AYI       0.109700
     60 HB           6.8440     1.9680     1.3850 hc         1 AYI       0.063200
     61 HBA          6.8080     3.4000     0.3040 hc         1 AYI       0.063200
     62 HNAE         7.5760     3.1520    -1.7850 hn         1 AYI       0.315000
     63 HNAA         8.6900     1.9640    -2.4320 hn         1 AYI       0.315000
     64 HND2         5.1940     1.6960     2.8840 hn         1 AYI       0.312500
     65 HNDA         3.8390     2.7960     3.0470 hn         1 AYI       0.312500
     66 O            7.5130     0.0340    -1.4810 o          1 AYI      -0.608100
     67 NAE          7.8650     2.1910    -1.8960 nt         1 AYI      -0.602000
@<TRIPOS>BOND
     1     1    11 1   
     2     1    36 1   
     3     1    37 1   
     4     1    45 1   
     5     2    13 2   
     6     3    14 2   
     7     4    20 1   
     8     5    20 1   
     9     6    20 1   
    10     7     9 ar  
    11     7    15 ar  
    12     7    38 1   
    13     8    10 ar  
    14     8    15 ar  
    15     8    39 1   
    16     9    16 ar  
    17     9    40 1   
    18    10    16 ar  
    19    10    41 1   
    20    11    13 1   
    21    11    46 1   
    22    12    15 1   
    23    12    20 1   
    24    13    17 1   
    25    14    18 1   
    26    14    25 1   
    27    16    19 1   
    28    17    18 1   
    29    17    19 1   
    30    17    42 1   
    31    18    19 1   
    32    18    43 1   
    33    19    44 1   
    34    21    23 1   
    35    21    48 1   
    36    21    49 1   
    37    21    50 1   
    38    22    26 2   
    39    23    27 1   
    40    23    53 1   
    41    23    54 1   
    42    24    27 1   
    43    24    47 1   
    44    24    51 1   
    45    24    52 1   
    46    25    28 1   
    47    25    55 1   
    48    26    28 1   
    49    26    30 1   
    50    27    28 1   
    51    27    56 1   
    52    28    57 1   
    53    29    31 1   
    54    29    66 2   
    55    29    67 1   
    56    30    31 1   
    57    30    58 1   
    58    31    32 1   
    59    31    59 1   
    60    32    33 1   
    61    32    60 1   
    62    32    61 1   
    63    33    34 2   
    64    33    35 1   
    65    35    64 1   
    66    35    65 1   
    67    62    67 1   
    68    63    67 1   
@<TRIPOS>SUBSTRUCTURE
     1 AYI         1 TEMP              0 ****  ****    0 ROOT
