@<TRIPOS>MOLECULE
AYI
   67    68     1     0     0
SMALL
abcg2


@<TRIPOS>ATOM
      1 CAB         -3.5470    -4.0250    -0.2190 c3         1 AYI       0.096300
      2 OAH         -3.7310    -2.6040     2.1660 o          1 AYI      -0.593100
      3 OAJ          1.1120    -0.7680     2.7480 o          1 AYI      -0.635100
      4 OAK         -7.1860     0.5330    -1.9510 o          1 AYI      -0.895833
      5 OAL         -5.6890     1.9050    -3.5220 o          1 AYI      -0.895833
      6 OAM         -7.7350     3.0020    -2.4270 o          1 AYI      -0.895833
      7 CAN         -4.4890     2.0630     0.9270 ca         1 AYI      -0.219000
      8 CAO         -4.0000     0.8230    -1.0630 ca         1 AYI      -0.219000
      9 CAP         -3.4550     1.4160     1.5800 ca         1 AYI      -0.061500
     10 CAQ         -2.9640     0.1870    -0.3950 ca         1 AYI      -0.061500
     11 NAT         -2.5220    -3.1900     0.3610 ns         1 AYI      -0.504900
     12 OAW         -5.7760     2.4600    -0.9870 os         1 AYI      -0.402500
     13 CAZ         -2.7010    -2.5290     1.5100 c          1 AYI       0.644100
     14 CBB          0.8580    -0.9470     1.5640 c          1 AYI       0.641100
     15 CBC         -4.7880     1.7810    -0.4130 ca         1 AYI       0.331100
     16 CBD         -2.6700     0.4590     0.9390 ca         1 AYI      -0.231300
     17 CBH         -1.5660    -1.6770     1.9870 cx         1 AYI      -0.209700
     18 CBI         -0.5430    -1.0750     1.0690 cx         1 AYI      -0.257700
     19 CBJ         -1.5850    -0.1990     1.7130 cx         1 AYI       0.071600
     20 PBK         -6.6940     1.9010    -2.3810 p5         1 AYI       1.250900
     21 CAA          4.9020    -4.0010    -0.6820 c3         1 AYI      -0.084100
     22 OAI          3.1380     0.3930    -1.2600 o          1 AYI      -0.582100
     23 CAR          3.8980    -2.8670    -0.5270 c3         1 AYI      -0.075400
     24 CAC          3.6590    -3.0010     1.9930 c3         1 AYI      -0.085100
     25 NAV          1.7960    -1.0320     0.6050 ns         1 AYI      -0.494900
     26 CBA          3.7200     0.1730    -0.2100 c          1 AYI       0.592100
     27 CBE          4.0290    -2.1220     0.8030 c3         1 AYI      -0.063700
     28 CBG          3.2010    -0.8160     0.8290 c3         1 AYI       0.037700
     29 C            6.1690     0.6630    -1.9540 c          1 AYI       0.589100
     30 N            4.8770     0.7730     0.1170 ns         1 AYI      -0.488900
     31 CA           5.6110     1.5560    -0.8400 c3         1 AYI       0.043700
     32 CB           6.7560     2.2770    -0.1380 c3         1 AYI      -0.175400
     33 CG           6.2380     3.2930     0.8650 c          1 AYI       0.603100
     34 OD1          5.3120     4.0430     0.5930 o          1 AYI      -0.578100
     35 ND2          6.8830     3.3090     2.0370 nt         1 AYI      -0.612000
     36 HAB         -3.2020    -4.3700    -1.1880 h1         1 AYI       0.037367
     37 HABA        -3.7650    -4.8960     0.4010 h1         1 AYI       0.037367
     38 HAN         -5.0770     2.8050     1.4540 ha         1 AYI       0.131500
     39 HAO         -4.1750     0.6020    -2.1060 ha         1 AYI       0.131500
     40 HAP         -3.2530     1.6640     2.6170 ha         1 AYI       0.062500
     41 HAQ         -2.3740    -0.5290    -0.9550 ha         1 AYI       0.062500
     42 HBH         -1.2160    -1.9570     2.9750 hc         1 AYI       0.095700
     43 HBI         -0.6500    -1.2510     0.0040 hc         1 AYI       0.094700
     44 HBJ         -1.2180     0.3970     2.5410 hc         1 AYI       0.076700
     45 H31         -4.4720    -3.4680    -0.3630 h1         1 AYI       0.037367
     46 H32         -1.6210    -3.1690    -0.0840 hn         1 AYI       0.302500
     47 HAC          2.6450    -3.3930     1.8960 hc         1 AYI       0.037033
     48 HAA          4.8050    -4.4740    -1.6590 hc         1 AYI       0.027033
     49 HAAA         5.9240    -3.6260    -0.5970 hc         1 AYI       0.027033
     50 HAAB         4.7680    -4.7800     0.0700 hc         1 AYI       0.027033
     51 HACA         4.3350    -3.8510     2.0770 hc         1 AYI       0.037033
     52 HACB         3.7130    -2.4440     2.9290 hc         1 AYI       0.037033
     53 HAR          4.0390    -2.1710    -1.3570 hc         1 AYI       0.052200
     54 HARA         2.8810    -3.2610    -0.6240 hc         1 AYI       0.052200
     55 HNAV         1.4930    -1.1120    -0.3540 hn         1 AYI       0.336500
     56 HBE          5.0780    -1.8240     0.9170 hc         1 AYI       0.037700
     57 HBG          3.3160    -0.3690     1.8190 h1         1 AYI       0.087700
     58 HN           5.3530     0.4750     0.9550 hn         1 AYI       0.313500
     59 HA           4.9450     2.3040    -1.2760 h1         1 AYI       0.109700
     60 HB           7.4270     1.5530     0.3310 hc         1 AYI       0.063200
     61 HBA          7.3500     2.8200    -0.8780 hc         1 AYI       0.063200
     62 HNAE         6.0730     2.2470    -3.2630 hn         1 AYI       0.315000
     63 HNAA         6.7690     0.8120    -3.9030 hn         1 AYI       0.315000
     64 HND2         7.6430     2.6820     2.2360 hn         1 AYI       0.312500
     65 HNDA         6.6340     3.9780     2.7490 hn         1 AYI       0.312500
     66 O            6.4450    -0.5080    -1.7560 o          1 AYI      -0.608100
     67 NAE          6.3550     1.2920    -3.1200 nt         1 AYI      -0.602000
@<TRIPOS>BOND
     1     1    11 1   
     2     1    36 1   
     3     1    37 1   
     4     1    45 1   
     5     2    13 2   
     6     3    14 2   
     7     4    20 1   
     8     5    20 1   
     9     6    20 1   
    10     7     9 ar  
    11     7    15 ar  
    12     7    38 1   
    13     8    10 ar  
    14     8    15 ar  
    15     8    39 1   
    16     9    16 ar  
    17     9    40 1   
    18    10    16 ar  
    19    10    41 1   
    20    11    13 1   
    21    11    46 1   
    22    12    15 1   
    23    12    20 1   
    24    13    17 1   
    25    14    18 1   
    26    14    25 1   
    27    16    19 1   
    28    17    18 1   
    29    17    19 1   
    30    17    42 1   
    31    18    19 1   
    32    18    43 1   
    33    19    44 1   
    34    21    23 1   
    35    21    48 1   
    36    21    49 1   
    37    21    50 1   
    38    22    26 2   
    39    23    27 1   
    40    23    53 1   
    41    23    54 1   
    42    24    27 1   
    43    24    47 1   
    44    24    51 1   
    45    24    52 1   
    46    25    28 1   
    47    25    55 1   
    48    26    28 1   
    49    26    30 1   
    50    27    28 1   
    51    27    56 1   
    52    28    57 1   
    53    29    31 1   
    54    29    66 2   
    55    29    67 1   
    56    30    31 1   
    57    30    58 1   
    58    31    32 1   
    59    31    59 1   
    60    32    33 1   
    61    32    60 1   
    62    32    61 1   
    63    33    34 2   
    64    33    35 1   
    65    35    64 1   
    66    35    65 1   
    67    62    67 1   
    68    63    67 1   
@<TRIPOS>SUBSTRUCTURE
     1 AYI         1 TEMP              0 ****  ****    0 ROOT
