@<TRIPOS>MOLECULE
AYJ
   33    33     1     0     0
SMALL
No Charge or Current Charge


@<TRIPOS>ATOM
      1 N1           0.4620     0.1360     0.6610 n3         1 AYJ      -0.779500
      2 C4          -0.9050     0.5690     0.2620 c6         1 AYJ       0.246500
      3 C5          -1.5540    -0.3230    -0.8360 c6         1 AYJ      -0.087400
      4 C6          -2.9480     0.2170    -1.2450 c6         1 AYJ      -0.073900
      5 C7          -3.8830     0.3440    -0.0160 c6         1 AYJ      -0.077400
      6 C8          -3.2410     1.2160     1.0910 c6         1 AYJ      -0.073900
      7 C1           1.8510     2.5100     0.5100 c3         1 AYJ      -0.366100
      8 S1           1.7910     0.8600    -0.1660 s6         1 AYJ       1.240100
      9 O1           2.9980     0.1650     0.2910 o          1 AYJ      -0.533000
     10 O2           1.4660     0.9050    -1.5950 o          1 AYJ      -0.533000
     11 C2           0.6450    -1.2800     1.1430 c3         1 AYJ       0.146800
     12 C3           0.9430    -2.4300     0.1230 c          1 AYJ       0.592100
     13 O3           1.0570    -2.2890    -1.0850 o          1 AYJ      -0.588100
     14 N2           1.0740    -3.6700     0.6560 nt         1 AYJ      -0.608000
     15 C9          -1.8470     0.6700     1.4930 c6         1 AYJ      -0.087400
     16 H1          -0.8450     1.5870    -0.1520 h1         1 AYJ       0.060700
     17 H2          -0.9090    -0.3660    -1.7230 hc         1 AYJ       0.050700
     18 H3          -1.6630    -1.3540    -0.4750 hc         1 AYJ       0.050700
     19 H4          -2.8380     1.1980    -1.7290 hc         1 AYJ       0.043700
     20 H5          -3.4020    -0.4490    -1.9910 hc         1 AYJ       0.043700
     21 H6          -4.8450     0.7770    -0.3220 hc         1 AYJ       0.041200
     22 H7          -4.1050    -0.6560     0.3830 hc         1 AYJ       0.041200
     23 H8          -3.1460     2.2520     0.7380 hc         1 AYJ       0.043700
     24 H9          -3.8980     1.2450     1.9700 hc         1 AYJ       0.043700
     25 H10          2.7150     3.0150     0.0680 h1         1 AYJ       0.098700
     26 H11          0.9180     3.0160     0.2460 h1         1 AYJ       0.098700
     27 H12          1.9580     2.4130     1.5950 h1         1 AYJ       0.098700
     28 H13          1.4780    -1.3050     1.8580 h1         1 AYJ       0.068700
     29 H14         -0.2310    -1.6050     1.7150 h1         1 AYJ       0.068700
     30 H15          0.9840    -3.8110     1.6520 hn         1 AYJ       0.315500
     31 H16          1.2660    -4.4490     0.0450 hn         1 AYJ       0.315500
     32 H17         -1.9720    -0.3100     1.9700 hc         1 AYJ       0.050700
     33 H18         -1.3980     1.3300     2.2480 hc         1 AYJ       0.050700
@<TRIPOS>BOND
     1     1     2 1   
     2     1     8 1   
     3     1    11 1   
     4     2     3 1   
     5     2    15 1   
     6     2    16 1   
     7     3     4 1   
     8     3    17 1   
     9     3    18 1   
    10     4     5 1   
    11     4    19 1   
    12     4    20 1   
    13     5     6 1   
    14     5    21 1   
    15     5    22 1   
    16     6    15 1   
    17     6    23 1   
    18     6    24 1   
    19     7     8 1   
    20     7    25 1   
    21     7    26 1   
    22     7    27 1   
    23     8     9 2   
    24     8    10 2   
    25    11    12 1   
    26    11    28 1   
    27    11    29 1   
    28    12    13 2   
    29    12    14 1   
    30    14    30 1   
    31    14    31 1   
    32    15    32 1   
    33    15    33 1   
@<TRIPOS>SUBSTRUCTURE
     1 AYJ         1 TEMP              0 ****  ****    0 ROOT
