@<TRIPOS>MOLECULE
AYJ
   33    33     1     0     0
SMALL
bcc


@<TRIPOS>ATOM
      1 N1           0.3900     0.0020     0.4080 n3         1 AYJ      -0.779500
      2 C4          -0.9530     0.4960     0.0820 c6         1 AYJ       0.246500
      3 C5          -1.7050    -0.4310    -0.8670 c6         1 AYJ      -0.087400
      4 C6          -3.0790     0.1380    -1.2080 c6         1 AYJ      -0.073900
      5 C7          -3.8950     0.4270     0.0470 c6         1 AYJ      -0.077400
      6 C8          -3.1330     1.3470     0.9940 c6         1 AYJ      -0.073900
      7 C1           1.7900     2.2740     0.8030 c3         1 AYJ      -0.255300
      8 S1           1.6970     0.7960    -0.1830 s6         1 AYJ       1.270900
      9 O1           2.8690    -0.0160     0.1200 o          1 AYJ      -0.603800
     10 O2           1.4620     1.2130    -1.5590 o          1 AYJ      -0.603800
     11 C2           0.5820    -1.2770     1.0400 c3         1 AYJ       0.146800
     12 C3           1.0410    -2.3780     0.0890 c          1 AYJ       0.659100
     13 O3           1.0880    -2.2280    -1.1180 o          1 AYJ      -0.588100
     14 N2           1.3610    -3.5210     0.7130 nt         1 AYJ      -0.675000
     15 C9          -1.7600     0.7830     1.3470 c6         1 AYJ      -0.087400
     16 H1          -0.8200     1.4520    -0.4360 h1         1 AYJ       0.060700
     17 H2          -1.1130    -0.5830    -1.7700 hc         1 AYJ       0.050700
     18 H3          -1.8310    -1.4130    -0.3980 hc         1 AYJ       0.050700
     19 H4          -2.9600     1.0630    -1.7840 hc         1 AYJ       0.043700
     20 H5          -3.6140    -0.5600    -1.8570 hc         1 AYJ       0.043700
     21 H6          -4.8540     0.8760    -0.2210 hc         1 AYJ       0.041200
     22 H7          -4.1240    -0.5150     0.5570 hc         1 AYJ       0.041200
     23 H8          -3.0080     2.3280     0.5210 hc         1 AYJ       0.043700
     24 H9          -3.7060     1.5170     1.9080 hc         1 AYJ       0.043700
     25 H10          2.6370     2.8620     0.4540 h1         1 AYJ       0.098700
     26 H11          0.8760     2.8530     0.6910 h1         1 AYJ       0.098700
     27 H12          1.9310     1.9960     1.8440 h1         1 AYJ       0.098700
     28 H13          1.2700    -1.2090     1.8850 h1         1 AYJ       0.068700
     29 H14         -0.3740    -1.5840     1.4680 h1         1 AYJ       0.068700
     30 H15          1.3400    -3.6060     1.7150 hn         1 AYJ       0.315500
     31 H16          1.6670    -4.3220     0.1880 hn         1 AYJ       0.315500
     32 H17         -1.8850    -0.1350     1.9300 hc         1 AYJ       0.050700
     33 H18         -1.2120     1.4850     1.9800 hc         1 AYJ       0.050700
@<TRIPOS>BOND
     1     1     2 1   
     2     1     8 1   
     3     1    11 1   
     4     2     3 1   
     5     2    15 1   
     6     2    16 1   
     7     3     4 1   
     8     3    17 1   
     9     3    18 1   
    10     4     5 1   
    11     4    19 1   
    12     4    20 1   
    13     5     6 1   
    14     5    21 1   
    15     5    22 1   
    16     6    15 1   
    17     6    23 1   
    18     6    24 1   
    19     7     8 1   
    20     7    25 1   
    21     7    26 1   
    22     7    27 1   
    23     8     9 2   
    24     8    10 2   
    25    11    12 1   
    26    11    28 1   
    27    11    29 1   
    28    12    13 2   
    29    12    14 1   
    30    14    30 1   
    31    14    31 1   
    32    15    32 1   
    33    15    33 1   
@<TRIPOS>SUBSTRUCTURE
     1 AYJ         1 TEMP              0 ****  ****    0 ROOT
