@<TRIPOS>MOLECULE
AYK
   71    73     1     0     0
SMALL
No Charge or Current Charge


@<TRIPOS>ATOM
      1 C4           5.1840     0.1770    -0.4870 ce         1 AYK      -0.074200
      2 C5           6.6200     0.0640     0.0450 c6         1 AYK      -0.074200
      3 C6           7.1590     1.4470     0.4940 c6         1 AYK       0.174300
      4 C7           4.1980    -0.6520    -0.0360 cf         1 AYK      -0.166000
      5 C10          2.7950    -0.6170    -0.4570 cf         1 AYK      -0.188000
      6 C11          1.8140    -1.5160    -0.1570 c2         1 AYK      -0.081400
      7 C12          0.3640    -1.3930    -0.6580 c5         1 AYK      -0.038500
      8 C13         -0.6170    -1.3470     0.5660 c5         1 AYK      -0.026000
      9 C14         -0.4560    -2.7000     1.3400 c6         1 AYK      -0.064400
     10 C15          1.0070    -2.9430     1.8100 c6         1 AYK      -0.071400
     11 C1           7.0330     2.4820    -0.6510 c6         1 AYK      -0.070400
     12 C2           5.5740     2.5830    -1.1570 c6         1 AYK      -0.039200
     13 C3           5.0320     1.2020    -1.5360 ce         1 AYK      -0.079200
     14 O9           8.5260     1.3350     0.9040 oh         1 AYK      -0.659000
     15 C16          2.0350    -2.7980     0.6580 c6         1 AYK      -0.042200
     16 C17         -1.9750    -1.2050    -0.3020 c5         1 AYK      -0.088700
     17 C18         -1.5720    -0.1070    -1.3660 c5         1 AYK      -0.079400
     18 C19         -0.0100    -0.0940    -1.4190 c5         1 AYK      -0.070400
     19 C20         -3.4220    -0.9500     0.3760 c3         1 AYK       0.214000
     20 C21         -4.6100    -0.8900    -0.6700 c3         1 AYK      -0.197400
     21 C22         -3.7270    -2.0070     1.4650 c3         1 AYK      -0.086100
     22 C23         -5.9570    -0.4300    -0.0960 c          1 AYK       0.613100
     23 O24         -3.4040     0.3190     1.0300 oh         1 AYK      -0.651000
     24 N25         -6.2610     0.8940    -0.3220 ns         1 AYK      -0.505900
     25 C26         -7.4980     1.5540     0.0900 c3         1 AYK       0.114700
     26 C27         -7.2370     3.0490     0.3560 c3         1 AYK      -0.108600
     27 C28         -8.6090     1.3330    -0.9560 c3         1 AYK      -0.108600
     28 C30         -0.3260    -0.1630     1.5860 c3         1 AYK      -0.077100
     29 O31         -6.7390    -1.1910     0.4580 o          1 AYK      -0.607100
     30 H1           6.6680    -0.6410     0.8860 hc         1 AYK       0.052700
     31 H2           7.2630    -0.3490    -0.7440 hc         1 AYK       0.052700
     32 H3           6.5470     1.7960     1.3400 h1         1 AYK       0.030700
     33 H4           4.4800    -1.3790     0.7230 ha         1 AYK       0.168000
     34 H5           4.1490    -0.0430    -3.0260 ha         1 AYK       0.166500
     35 H6           4.4250     1.7240    -3.5180 ha         1 AYK       0.166500
     36 H7           2.5380     0.2400    -1.0770 ha         1 AYK       0.178000
     37 H8           0.1660    -2.2600    -1.3030 hc         1 AYK       0.051700
     38 H9          -1.1050    -2.7370     2.2210 hc         1 AYK       0.041700
     39 H10         -0.7680    -3.5330     0.6950 hc         1 AYK       0.041700
     40 H11          1.2640    -2.2460     2.6180 hc         1 AYK       0.042200
     41 H12          1.0890    -3.9470     2.2480 hc         1 AYK       0.042200
     42 H13          7.3760     3.4670    -0.3060 hc         1 AYK       0.055200
     43 H14          7.6890     2.1940    -1.4840 hc         1 AYK       0.055200
     44 H15          4.9380     3.0210    -0.3750 hc         1 AYK       0.048700
     45 H16          5.5290     3.2680    -2.0140 hc         1 AYK       0.048700
     46 H17          8.5390     0.7320     1.6790 ho         1 AYK       0.442000
     47 H18          1.9340    -3.6590    -0.0180 hc         1 AYK       0.046700
     48 H19          3.0450    -2.8730     1.0740 hc         1 AYK       0.046700
     49 H20         -2.1210    -2.1490    -0.8430 hc         1 AYK       0.049700
     50 H21         -1.9980    -0.3440    -2.3470 hc         1 AYK       0.035200
     51 H22         -1.9460     0.8890    -1.1020 hc         1 AYK       0.035200
     52 H23          0.3800     0.8060    -0.9320 hc         1 AYK       0.047700
     53 H24          0.3700    -0.0920    -2.4470 hc         1 AYK       0.047700
     54 H25         -4.3150    -0.1820    -1.4520 hc         1 AYK       0.060700
     55 H26         -4.7340    -1.8870    -1.1080 hc         1 AYK       0.060700
     56 H27         -3.0720    -1.8810     2.3320 hc         1 AYK       0.052367
     57 H28         -4.7480    -1.9220     1.8490 hc         1 AYK       0.052367
     58 H29         -3.5960    -3.0210     1.0680 hc         1 AYK       0.052367
     59 H30         -2.6450     0.3120     1.6480 ho         1 AYK       0.437000
     60 H31         -5.5440     1.4480    -0.7740 hn         1 AYK       0.303500
     61 H32         -7.8290     1.1030     1.0360 h1         1 AYK       0.077700
     62 H33         -6.9020     3.5570    -0.5560 hc         1 AYK       0.040867
     63 H34         -8.1510     3.5420     0.7090 hc         1 AYK       0.040867
     64 H35         -6.4650     3.1740     1.1250 hc         1 AYK       0.040867
     65 H36         -8.8020     0.2630    -1.0960 hc         1 AYK       0.040867
     66 H37         -9.5430     1.8060    -0.6310 hc         1 AYK       0.040867
     67 H38         -8.3240     1.7620    -1.9240 hc         1 AYK       0.040867
     68 H39         -0.9200    -0.2770     2.5010 hc         1 AYK       0.038033
     69 H40          0.7270    -0.1200     1.8880 hc         1 AYK       0.038033
     70 H41         -0.5730     0.8180     1.1660 hc         1 AYK       0.038033
     71 C8           4.5070     0.9500    -2.7540 c2         1 AYK      -0.310000
@<TRIPOS>BOND
     1     1     2 1   
     2     1     4 2   
     3     1    13 1   
     4     2     3 1   
     5     2    30 1   
     6     2    31 1   
     7     3    11 1   
     8     3    14 1   
     9     3    32 1   
    10     4     5 1   
    11     4    33 1   
    12     5     6 2   
    13     5    36 1   
    14     6     7 1   
    15     6    15 1   
    16     7     8 1   
    17     7    18 1   
    18     7    37 1   
    19     8     9 1   
    20     8    16 1   
    21     8    28 1   
    22     9    10 1   
    23     9    38 1   
    24     9    39 1   
    25    10    15 1   
    26    10    40 1   
    27    10    41 1   
    28    11    12 1   
    29    11    42 1   
    30    11    43 1   
    31    12    13 1   
    32    12    44 1   
    33    12    45 1   
    34    13    71 2   
    35    14    46 1   
    36    15    47 1   
    37    15    48 1   
    38    16    17 1   
    39    16    19 1   
    40    16    49 1   
    41    17    18 1   
    42    17    50 1   
    43    17    51 1   
    44    18    52 1   
    45    18    53 1   
    46    19    20 1   
    47    19    21 1   
    48    19    23 1   
    49    20    22 1   
    50    20    54 1   
    51    20    55 1   
    52    21    56 1   
    53    21    57 1   
    54    21    58 1   
    55    22    24 1   
    56    22    29 2   
    57    23    59 1   
    58    24    25 1   
    59    24    60 1   
    60    25    26 1   
    61    25    27 1   
    62    25    61 1   
    63    26    62 1   
    64    26    63 1   
    65    26    64 1   
    66    27    65 1   
    67    27    66 1   
    68    27    67 1   
    69    28    68 1   
    70    28    69 1   
    71    28    70 1   
    72    34    71 1   
    73    35    71 1   
@<TRIPOS>SUBSTRUCTURE
     1 AYK         1 TEMP              0 ****  ****    0 ROOT
