@<TRIPOS>MOLECULE
AYK
   71    73     1     0     0
SMALL
abcg2


@<TRIPOS>ATOM
      1 C4           5.0850     0.1790    -0.5010 ce         1 AYK      -0.074200
      2 C5           6.4840     0.0460     0.0390 c6         1 AYK      -0.074200
      3 C6           7.0140     1.3830     0.5650 c6         1 AYK       0.174300
      4 C7           4.0960    -0.6370    -0.0950 cf         1 AYK      -0.166000
      5 C10          2.6990    -0.5590    -0.4780 cf         1 AYK      -0.188000
      6 C11          1.7550    -1.4760    -0.2170 c2         1 AYK      -0.081400
      7 C12          0.3260    -1.3070    -0.6270 c5         1 AYK      -0.038500
      8 C13         -0.6560    -1.4030     0.5690 c5         1 AYK      -0.026000
      9 C14         -0.4650    -2.7840     1.2060 c6         1 AYK      -0.064400
     10 C15          0.9880    -3.0300     1.6140 c6         1 AYK      -0.071400
     11 C1           6.9320     2.4430    -0.5190 c6         1 AYK      -0.070400
     12 C2           5.4960     2.5990    -1.0180 c6         1 AYK      -0.039200
     13 C3           4.9200     1.2830    -1.4700 ce         1 AYK      -0.079200
     14 O9           8.3590     1.2840     0.9820 oh         1 AYK      -0.659000
     15 C16          1.9780    -2.7970     0.4670 c6         1 AYK      -0.042200
     16 C17         -1.9930    -1.1910    -0.1850 c5         1 AYK      -0.088700
     17 C18         -1.6590    -0.1280    -1.2710 c5         1 AYK      -0.079400
     18 C19         -0.1240    -0.0670    -1.3780 c5         1 AYK      -0.070400
     19 C20         -3.3040    -0.9060     0.5860 c3         1 AYK       0.214000
     20 C21         -4.4580    -0.9440    -0.4550 c3         1 AYK      -0.197400
     21 C22         -3.5550    -1.9400     1.6780 c3         1 AYK      -0.086100
     22 C23         -5.7550    -0.3740     0.0770 c          1 AYK       0.613100
     23 O24         -3.3040     0.3480     1.2440 oh         1 AYK      -0.651000
     24 N25         -6.0460     0.8660    -0.3470 ns         1 AYK      -0.505900
     25 C26         -7.2440     1.5960     0.0340 c3         1 AYK       0.114700
     26 C27         -6.9630     3.0890    -0.0550 c3         1 AYK      -0.108600
     27 C28         -8.4380     1.1960    -0.8250 c3         1 AYK      -0.108600
     28 C30         -0.3710    -0.2960     1.5880 c3         1 AYK      -0.077100
     29 O31         -6.4820    -0.9950     0.8450 o          1 AYK      -0.607100
     30 H1           6.5150    -0.7100     0.8290 hc         1 AYK       0.052700
     31 H2           7.1540    -0.2910    -0.7620 hc         1 AYK       0.052700
     32 H3           6.3740     1.6970     1.4050 h1         1 AYK       0.030700
     33 H4           4.3690    -1.4120     0.6150 ha         1 AYK       0.168000
     34 H5           3.9770     0.1620    -2.9940 ha         1 AYK       0.166500
     35 H6           4.2790     1.9420    -3.3690 ha         1 AYK       0.166500
     36 H7           2.4020     0.3320    -1.0220 ha         1 AYK       0.178000
     37 H8           0.0900    -2.1720    -1.2690 hc         1 AYK       0.051700
     38 H9          -1.1070    -2.9150     2.0780 hc         1 AYK       0.041700
     39 H10         -0.7680    -3.5480     0.4810 hc         1 AYK       0.041700
     40 H11          1.2570    -2.3890     2.4580 hc         1 AYK       0.042200
     41 H12          1.0940    -4.0560     1.9730 hc         1 AYK       0.042200
     42 H13          7.2960     3.4000    -0.1370 hc         1 AYK       0.055200
     43 H14          7.5820     2.1580    -1.3530 hc         1 AYK       0.055200
     44 H15          4.8790     2.9910    -0.2020 hc         1 AYK       0.048700
     45 H16          5.4520     3.3310    -1.8250 hc         1 AYK       0.048700
     46 H17          8.4050     0.6640     1.7170 ho         1 AYK       0.442000
     47 H18          1.8320    -3.5870    -0.2800 hc         1 AYK       0.046700
     48 H19          2.9990    -2.9090     0.8320 hc         1 AYK       0.046700
     49 H20         -2.1810    -2.1340    -0.7140 hc         1 AYK       0.049700
     50 H21         -2.1030    -0.4100    -2.2260 hc         1 AYK       0.035200
     51 H22         -2.0600     0.8620    -1.0380 hc         1 AYK       0.035200
     52 H23          0.2620     0.8390    -0.9080 hc         1 AYK       0.047700
     53 H24          0.2200    -0.0590    -2.4130 hc         1 AYK       0.047700
     54 H25         -4.1610    -0.4000    -1.3550 hc         1 AYK       0.060700
     55 H26         -4.6330    -1.9770    -0.7630 hc         1 AYK       0.060700
     56 H27         -2.8320    -1.8430     2.4860 hc         1 AYK       0.052367
     57 H28         -4.5500    -1.8220     2.1040 hc         1 AYK       0.052367
     58 H29         -3.4830    -2.9500     1.2760 hc         1 AYK       0.052367
     59 H30         -3.0750     1.0410     0.6170 ho         1 AYK       0.437000
     60 H31         -5.4390     1.2980    -1.0240 hn         1 AYK       0.303500
     61 H32         -7.4620     1.3440     1.0740 h1         1 AYK       0.077700
     62 H33         -6.7160     3.3830    -1.0780 hc         1 AYK       0.040867
     63 H34         -7.8430     3.6570     0.2470 hc         1 AYK       0.040867
     64 H35         -6.1360     3.3770     0.5930 hc         1 AYK       0.040867
     65 H36         -8.6280     0.1250    -0.7600 hc         1 AYK       0.040867
     66 H37         -9.3380     1.7170    -0.4950 hc         1 AYK       0.040867
     67 H38         -8.2670     1.4510    -1.8730 hc         1 AYK       0.040867
     68 H39         -1.0110    -0.3920     2.4660 hc         1 AYK       0.038033
     69 H40          0.6640    -0.3310     1.9280 hc         1 AYK       0.038033
     70 H41         -0.5380     0.7010     1.1800 hc         1 AYK       0.038033
     71 C8           4.3600     1.1200    -2.6680 c2         1 AYK      -0.310000
@<TRIPOS>BOND
     1     1     2 1   
     2     1     4 2   
     3     1    13 1   
     4     2     3 1   
     5     2    30 1   
     6     2    31 1   
     7     3    11 1   
     8     3    14 1   
     9     3    32 1   
    10     4     5 1   
    11     4    33 1   
    12     5     6 2   
    13     5    36 1   
    14     6     7 1   
    15     6    15 1   
    16     7     8 1   
    17     7    18 1   
    18     7    37 1   
    19     8     9 1   
    20     8    16 1   
    21     8    28 1   
    22     9    10 1   
    23     9    38 1   
    24     9    39 1   
    25    10    15 1   
    26    10    40 1   
    27    10    41 1   
    28    11    12 1   
    29    11    42 1   
    30    11    43 1   
    31    12    13 1   
    32    12    44 1   
    33    12    45 1   
    34    13    71 2   
    35    14    46 1   
    36    15    47 1   
    37    15    48 1   
    38    16    17 1   
    39    16    19 1   
    40    16    49 1   
    41    17    18 1   
    42    17    50 1   
    43    17    51 1   
    44    18    52 1   
    45    18    53 1   
    46    19    20 1   
    47    19    21 1   
    48    19    23 1   
    49    20    22 1   
    50    20    54 1   
    51    20    55 1   
    52    21    56 1   
    53    21    57 1   
    54    21    58 1   
    55    22    24 1   
    56    22    29 2   
    57    23    59 1   
    58    24    25 1   
    59    24    60 1   
    60    25    26 1   
    61    25    27 1   
    62    25    61 1   
    63    26    62 1   
    64    26    63 1   
    65    26    64 1   
    66    27    65 1   
    67    27    66 1   
    68    27    67 1   
    69    28    68 1   
    70    28    69 1   
    71    28    70 1   
    72    34    71 1   
    73    35    71 1   
@<TRIPOS>SUBSTRUCTURE
     1 AYK         1 TEMP              0 ****  ****    0 ROOT
