@<TRIPOS>MOLECULE
AYL
   56    59     1     0     0
SMALL
No Charge or Current Charge


@<TRIPOS>ATOM
      1 P            0.6970     3.7520     2.2420 p5         1 AYL       1.410800
      2 N1          -0.9160    -4.5230    -0.6210 nb         1 AYL      -0.319000
      3 C2          -1.0020    -3.6900    -1.6850 ca         1 AYL       0.158900
      4 N3          -1.0530    -2.3370    -1.6520 nb         1 AYL      -0.202000
      5 C4          -1.0090    -1.7750    -0.4270 ca         1 AYL       0.122500
      6 C5          -0.9190    -2.5290     0.7170 ca         1 AYL      -0.090600
      7 C6          -0.8720    -3.9340     0.5830 ca         1 AYL       0.431900
      8 N6          -0.7860    -4.7720     1.6500 nv         1 AYL      -1.075900
      9 N7          -0.8870    -1.7490     1.8680 nc         1 AYL      -0.579100
     10 C8          -0.9500    -0.5000     1.3600 cd         1 AYL       0.442700
     11 N9          -1.0500    -0.4610    -0.0430 na         1 AYL      -0.285300
     12 C1          -1.1570     0.7250    -0.8830 c5         1 AYL       0.322300
     13 O1P          0.3950     2.4090     2.8160 o          1 AYL      -0.828000
     14 C7          -2.5930     1.3080    -1.0840 c5         1 AYL       0.068300
     15 O2          -3.3770     0.6400    -2.0960 oh         1 AYL      -0.700000
     16 O2P          1.6700     3.7060     0.9560 os         1 AYL      -0.603400
     17 C3          -2.2210     2.7520    -1.5180 c5         1 AYL       0.103300
     18 O3          -1.7840     2.7600    -2.8830 oh         1 AYL      -0.710000
     19 O3P          1.2520     4.6770     3.2740 o          1 AYL      -0.828000
     20 C9          -1.0760     3.0680    -0.4940 c5         1 AYL       0.138300
     21 O4          -0.4020     1.7970    -0.2870 os         1 AYL      -0.420000
     22 C10         -1.6070     3.6080     0.8700 c3         1 AYL       0.220600
     23 O5          -0.6150     4.3970     1.5560 os         1 AYL      -0.575400
     24 CAC          2.7660    -3.3410    -1.1010 ca         1 AYL       0.119100
     25 CAD          2.5210    -3.0370     0.2460 ca         1 AYL      -0.175500
     26 CAH          3.6980    -1.1180    -1.4340 ca         1 AYL      -0.072000
     27 CAJ          2.8610    -1.7720     0.7550 ca         1 AYL      -0.072000
     28 CAK          3.4550    -0.8060    -0.0810 ca         1 AYL      -0.096300
     29 CAP          3.8070     0.5710     0.4670 c3         1 AYL      -0.030100
     30 CAQ          2.5770     1.4990     0.4780 c3         1 AYL      -0.086400
     31 CAR          2.8750     2.9280     0.9830 c3         1 AYL       0.230600
     32 CAS          3.3530    -2.3840    -1.9410 ca         1 AYL      -0.175500
     33 HN6         -1.0620    -5.7400     1.5180 hn         1 AYL       0.497500
     34 HN6A        -0.9630    -4.3680     2.5670 hn         1 AYL       0.497500
     35 H8          -0.9470     0.4150     1.9420 h5         1 AYL       0.138800
     36 H1          -0.7140     0.4700    -1.8540 h2         1 AYL       0.104700
     37 H2          -3.1360     1.3220    -0.1270 h1         1 AYL       0.068700
     38 HO2         -3.6350    -0.2440    -1.7390 ho         1 AYL       0.504000
     39 H3          -3.0730     3.4350    -1.3940 h1         1 AYL       0.049700
     40 HO3         -2.3400     2.0630    -3.3110 ho         1 AYL       0.509000
     41 H4          -0.3700     3.7990    -0.9100 h1         1 AYL       0.097700
     42 H5          -2.4840     4.2390     0.6740 h1         1 AYL       0.030200
     43 H5'A        -1.9470     2.7710     1.4930 h1         1 AYL       0.030200
     44 HAD          2.0660    -3.7730     0.9040 ha         1 AYL       0.115500
     45 HAH          4.1480    -0.3790    -2.0930 ha         1 AYL       0.116500
     46 HAJ          2.6590    -1.5390     1.7990 ha         1 AYL       0.116500
     47 HAP          4.2020     0.4820     1.4870 hc         1 AYL       0.041700
     48 HAPA         4.6030     1.0300    -0.1330 hc         1 AYL       0.041700
     49 HAQ          2.1860     1.5650    -0.5440 hc         1 AYL       0.050700
     50 HAQA         1.8010     1.0370     1.0960 hc         1 AYL       0.050700
     51 HAR          3.6330     3.3890     0.3360 h1         1 AYL       0.017700
     52 HARA         3.2880     2.8790     1.9990 h1         1 AYL       0.017700
     53 HAS          3.5410    -2.6190    -2.9850 ha         1 AYL       0.115500
     54 HOBF         1.9740    -5.0680    -0.8950 ho         1 AYL       0.457000
     55 OBF          2.4360    -4.5650    -1.5990 oh         1 AYL      -0.547100
     56 H6          -1.0360    -4.1550    -2.6690 h5         1 AYL       0.033100
@<TRIPOS>BOND
     1     1    13 1   
     2     1    16 1   
     3     1    19 1   
     4     1    23 1   
     5     2     3 ar  
     6     2     7 ar  
     7     3     4 ar  
     8     3    56 1   
     9     4     5 ar  
    10     5     6 ar  
    11     5    11 1   
    12     6     7 ar  
    13     6     9 1   
    14     7     8 1   
    15     8    33 1   
    16     8    34 1   
    17     9    10 2   
    18    10    11 1   
    19    10    35 1   
    20    11    12 1   
    21    12    14 1   
    22    12    21 1   
    23    12    36 1   
    24    14    15 1   
    25    14    17 1   
    26    14    37 1   
    27    15    38 1   
    28    16    31 1   
    29    17    18 1   
    30    17    20 1   
    31    17    39 1   
    32    18    40 1   
    33    20    21 1   
    34    20    22 1   
    35    20    41 1   
    36    22    23 1   
    37    22    42 1   
    38    22    43 1   
    39    24    25 ar  
    40    24    32 ar  
    41    24    55 1   
    42    25    27 ar  
    43    25    44 1   
    44    26    28 ar  
    45    26    32 ar  
    46    26    45 1   
    47    27    28 ar  
    48    27    46 1   
    49    28    29 1   
    50    29    30 1   
    51    29    47 1   
    52    29    48 1   
    53    30    31 1   
    54    30    49 1   
    55    30    50 1   
    56    31    51 1   
    57    31    52 1   
    58    32    53 1   
    59    54    55 1   
@<TRIPOS>SUBSTRUCTURE
     1 AYL         1 TEMP              0 ****  ****    0 ROOT
