@<TRIPOS>MOLECULE
AYL
   56    59     1     0     0
SMALL
abcg2


@<TRIPOS>ATOM
      1 P            0.5850     3.8280     1.9090 p5         1 AYL       1.410800
      2 N1          -0.7130    -4.0420    -0.2560 nb         1 AYL      -0.319000
      3 C2          -1.0740    -3.3450    -1.3310 ca         1 AYL       0.158900
      4 N3          -1.2820    -2.0450    -1.4350 nb         1 AYL      -0.202000
      5 C4          -1.0800    -1.4180    -0.2780 ca         1 AYL       0.122500
      6 C5          -0.6970    -2.0030     0.9180 ca         1 AYL      -0.090600
      7 C6          -0.5100    -3.3960     0.8980 ca         1 AYL       0.431900
      8 N6          -0.1100    -4.0870     1.9700 nv         1 AYL      -1.075900
      9 N7          -0.5540    -1.0570     1.9000 nc         1 AYL      -0.579100
     10 C8          -0.8540     0.0690     1.3170 cd         1 AYL       0.442700
     11 N9          -1.1830    -0.0850    -0.0040 na         1 AYL      -0.285300
     12 C1          -1.6220     0.9350    -0.9230 c5         1 AYL       0.322300
     13 O1P         -0.2730     2.9370     2.7630 o          1 AYL      -0.828000
     14 C7          -3.0420     1.4310    -0.6620 c5         1 AYL       0.068300
     15 O2          -3.9700     0.5470    -1.2130 oh         1 AYL      -0.700000
     16 O2P          1.5640     2.9290     0.9550 os         1 AYL      -0.603400
     17 C3          -2.9840     2.8120    -1.3190 c5         1 AYL       0.103300
     18 O3          -3.0640     2.7080    -2.7170 oh         1 AYL      -0.710000
     19 O3P          1.3780     4.9320     2.5350 o          1 AYL      -0.828000
     20 C9          -1.5780     3.2590    -0.9310 c5         1 AYL       0.138300
     21 O4          -0.8060     2.0610    -0.7950 os         1 AYL      -0.420000
     22 C10         -1.5890     4.0630     0.3580 c3         1 AYL       0.220600
     23 O5          -0.3060     4.5200     0.7200 os         1 AYL      -0.575400
     24 CAC          3.8220    -3.4510    -1.8510 ca         1 AYL       0.119100
     25 CAD          2.8920    -3.5180    -0.8180 ca         1 AYL      -0.175500
     26 CAH          4.6030    -1.3500    -0.9770 ca         1 AYL      -0.072000
     27 CAJ          2.8300    -2.4990     0.1210 ca         1 AYL      -0.072000
     28 CAK          3.6750    -1.3960     0.0620 ca         1 AYL      -0.096300
     29 CAP          3.5340    -0.2650     1.0410 c3         1 AYL      -0.030100
     30 CAQ          2.6400     0.8470     0.4920 c3         1 AYL      -0.086400
     31 CAR          2.3770     1.9220     1.5270 c3         1 AYL       0.230600
     32 CAS          4.6850    -2.3600    -1.9230 ca         1 AYL      -0.175500
     33 HN6         -0.0700    -5.0910     1.9330 hn         1 AYL       0.497500
     34 HN6A        -0.0500    -3.6460     2.8720 hn         1 AYL       0.497500
     35 H8          -0.8160     1.0440     1.7900 h5         1 AYL       0.138800
     36 H1          -1.5570     0.4910    -1.9230 h2         1 AYL       0.104700
     37 H2          -3.1890     1.5530     0.4190 h1         1 AYL       0.068700
     38 HO2         -4.8320     0.7150    -0.8200 ho         1 AYL       0.504000
     39 H3          -3.7520     3.4880    -0.9190 h1         1 AYL       0.049700
     40 HO3         -3.8010     2.1230    -2.9280 ho         1 AYL       0.509000
     41 H4          -1.1330     3.8670    -1.7260 h1         1 AYL       0.097700
     42 H5          -2.2160     4.9440     0.1890 h1         1 AYL       0.030200
     43 H5'A        -2.0500     3.4900     1.1680 h1         1 AYL       0.030200
     44 HAD          2.2070    -4.3560    -0.7490 ha         1 AYL       0.115500
     45 HAH          5.2800    -0.5070    -1.0510 ha         1 AYL       0.116500
     46 HAJ          2.1040    -2.5690     0.9220 ha         1 AYL       0.116500
     47 HAP          3.1100    -0.6400     1.9760 hc         1 AYL       0.041700
     48 HAPA         4.5160     0.1470     1.2890 hc         1 AYL       0.041700
     49 HAQ          3.1080     1.2880    -0.3940 hc         1 AYL       0.050700
     50 HAQA         1.6860     0.4260     0.1660 hc         1 AYL       0.050700
     51 HAR          3.3260     2.3500     1.8750 h1         1 AYL       0.017700
     52 HARA         1.8910     1.4700     2.3990 h1         1 AYL       0.017700
     53 HAS          5.4160    -2.3040    -2.7200 ha         1 AYL       0.115500
     54 HOBF         3.2940    -5.1120    -2.6350 ho         1 AYL       0.457000
     55 OBF          3.9310    -4.4090    -2.7990 oh         1 AYL      -0.547100
     56 H6          -1.2160    -3.9260    -2.2360 h5         1 AYL       0.033100
@<TRIPOS>BOND
     1     1    13 1   
     2     1    16 1   
     3     1    19 1   
     4     1    23 1   
     5     2     3 ar  
     6     2     7 ar  
     7     3     4 ar  
     8     3    56 1   
     9     4     5 ar  
    10     5     6 ar  
    11     5    11 1   
    12     6     7 ar  
    13     6     9 1   
    14     7     8 1   
    15     8    33 1   
    16     8    34 1   
    17     9    10 2   
    18    10    11 1   
    19    10    35 1   
    20    11    12 1   
    21    12    14 1   
    22    12    21 1   
    23    12    36 1   
    24    14    15 1   
    25    14    17 1   
    26    14    37 1   
    27    15    38 1   
    28    16    31 1   
    29    17    18 1   
    30    17    20 1   
    31    17    39 1   
    32    18    40 1   
    33    20    21 1   
    34    20    22 1   
    35    20    41 1   
    36    22    23 1   
    37    22    42 1   
    38    22    43 1   
    39    24    25 ar  
    40    24    32 ar  
    41    24    55 1   
    42    25    27 ar  
    43    25    44 1   
    44    26    28 ar  
    45    26    32 ar  
    46    26    45 1   
    47    27    28 ar  
    48    27    46 1   
    49    28    29 1   
    50    29    30 1   
    51    29    47 1   
    52    29    48 1   
    53    30    31 1   
    54    30    49 1   
    55    30    50 1   
    56    31    51 1   
    57    31    52 1   
    58    32    53 1   
    59    54    55 1   
@<TRIPOS>SUBSTRUCTURE
     1 AYL         1 TEMP              0 ****  ****    0 ROOT
