@<TRIPOS>MOLECULE
AYM
   44    46     1     0     0
SMALL
No Charge or Current Charge


@<TRIPOS>ATOM
      1 N01         -2.8610     0.1600    -5.4960 nv         1 AYM      -1.068900
      2 C02         -1.8060     0.3640    -4.7090 ca         1 AYM       0.624900
      3 N03         -1.8560    -0.4100    -3.6380 nb         1 AYM      -0.756000
      4 C04         -0.8310    -0.3010    -2.7610 ca         1 AYM       0.415900
      5 C05          0.2610     0.5800    -2.9430 ca         1 AYM      -0.196800
      6 C06          0.2770     1.3880    -4.0960 ca         1 AYM      -0.007000
      7 C07         -0.7880     1.2700    -5.0000 ca         1 AYM      -0.244000
      8 C08          1.3750     0.6780    -1.9530 ce         1 AYM      -0.055200
      9 C09          1.6150    -0.1130    -0.8670 cf         1 AYM      -0.311200
     10 C10          2.7660     0.0800     0.0670 c          1 AYM       0.612300
     11 O11          3.5800     0.9680    -0.1540 o          1 AYM      -0.606100
     12 N12          2.9260    -0.7580     1.1960 n          1 AYM      -0.400800
     13 C13          4.1240    -0.6050     2.0550 c3         1 AYM       0.079300
     14 C14          1.9520    -1.8180     1.5590 c3         1 AYM       0.164200
     15 C15          0.5990    -1.2670     1.9530 cc         1 AYM      -0.104300
     16 C16         -0.6590    -1.5940     1.4630 cd         1 AYM      -0.213200
     17 C17         -1.6790    -0.8070     2.1040 ca         1 AYM      -0.099800
     18 C18         -1.0240    -0.0050     2.9980 ca         1 AYM      -0.042200
     19 N19          0.3400    -0.2810     2.9340 na         1 AYM      -0.081700
     20 C20          1.3110     0.3770     3.8240 c3         1 AYM       0.061900
     21 C21         -3.0670    -0.7710     1.9300 ca         1 AYM      -0.056000
     22 C22         -3.7980     0.1430     2.7190 ca         1 AYM      -0.142000
     23 C23         -3.1320     0.9830     3.6440 ca         1 AYM      -0.090000
     24 C24         -1.7280     0.9170     3.7910 ca         1 AYM      -0.130000
     25 H011        -3.3780    -0.6850    -5.2870 hn         1 AYM       0.486000
     26 H012        -2.7620     0.3940    -6.4780 hn         1 AYM       0.486000
     27 H04         -0.8980    -0.9410    -1.8830 h4         1 AYM       0.015100
     28 H06          1.0900     2.0850    -4.2870 ha         1 AYM       0.120000
     29 H07         -0.8200     1.8710    -5.9040 ha         1 AYM       0.123000
     30 H08          2.0710     1.4980    -2.1500 ha         1 AYM       0.195000
     31 H09          0.9410    -0.9360    -0.6690 ha         1 AYM       0.178000
     32 H131         5.0290    -0.7890     1.4620 h1         1 AYM       0.042367
     33 H132         4.1610     0.4150     2.4590 h1         1 AYM       0.042367
     34 H133         4.1030    -1.3130     2.8930 h1         1 AYM       0.042367
     35 H141         1.8380    -2.5040     0.7100 h1         1 AYM       0.061200
     36 H142         2.3400    -2.4140     2.3950 h1         1 AYM       0.061200
     37 H16         -0.8440    -2.3390     0.6930 ha         1 AYM       0.207000
     38 H201         0.8370     0.6430     4.7760 h1         1 AYM       0.048033
     39 H202         2.1430    -0.3060     4.0330 h1         1 AYM       0.048033
     40 H203         1.6950     1.2830     3.3410 h1         1 AYM       0.048033
     41 H21         -3.5630    -1.4190     1.2110 ha         1 AYM       0.115000
     42 H22         -4.8790     0.2030     2.6140 ha         1 AYM       0.110000
     43 H23         -3.7050     1.6860     4.2450 ha         1 AYM       0.109000
     44 H24         -1.2180     1.5670     4.4980 ha         1 AYM       0.112000
@<TRIPOS>BOND
     1     1     2 1   
     2     1    25 1   
     3     1    26 1   
     4     2     3 ar  
     5     2     7 ar  
     6     3     4 ar  
     7     4     5 ar  
     8     4    27 1   
     9     5     6 ar  
    10     5     8 1   
    11     6     7 ar  
    12     6    28 1   
    13     7    29 1   
    14     8     9 2   
    15     8    30 1   
    16     9    10 1   
    17     9    31 1   
    18    10    11 2   
    19    10    12 1   
    20    12    13 1   
    21    12    14 1   
    22    13    32 1   
    23    13    33 1   
    24    13    34 1   
    25    14    15 1   
    26    14    35 1   
    27    14    36 1   
    28    15    16 2   
    29    15    19 1   
    30    16    17 1   
    31    16    37 1   
    32    17    18 ar  
    33    17    21 ar  
    34    18    19 1   
    35    18    24 ar  
    36    19    20 1   
    37    20    38 1   
    38    20    39 1   
    39    20    40 1   
    40    21    22 ar  
    41    21    41 1   
    42    22    23 ar  
    43    22    42 1   
    44    23    24 ar  
    45    23    43 1   
    46    24    44 1   
@<TRIPOS>SUBSTRUCTURE
     1 AYM         1 TEMP              0 ****  ****    0 ROOT
