@<TRIPOS>MOLECULE
AYM
   44    46     1     0     0
SMALL
abcg2


@<TRIPOS>ATOM
      1 N01         -2.1540    -0.8200    -6.5760 nv         1 AYM      -1.068900
      2 C02         -1.3240    -0.4460    -5.5800 ca         1 AYM       0.624900
      3 N03         -1.2410    -1.2560    -4.5190 nb         1 AYM      -0.756000
      4 C04         -0.4600    -0.9070    -3.5130 ca         1 AYM       0.415900
      5 C05          0.3000     0.2610    -3.4650 ca         1 AYM      -0.196800
      6 C06          0.1950     1.1040    -4.5830 ca         1 AYM      -0.007000
      7 C07         -0.6060     0.7640    -5.6430 ca         1 AYM      -0.244000
      8 C08          1.1650     0.6250    -2.3590 ce         1 AYM      -0.055200
      9 C09          1.4450    -0.1100    -1.2730 cf         1 AYM      -0.311200
     10 C10          2.3700     0.4100    -0.2430 c          1 AYM       0.612300
     11 O11          3.0100     1.4400    -0.4310 o          1 AYM      -0.606100
     12 N12          2.5230    -0.3090     0.9030 n          1 AYM      -0.400800
     13 C13          3.4310     0.1880     1.9170 c3         1 AYM       0.079300
     14 C14          1.5820    -1.3260     1.3520 c3         1 AYM       0.164200
     15 C15          0.3870    -0.7580     2.0540 cc         1 AYM      -0.104300
     16 C16         -0.7390    -0.2440     1.4690 cd         1 AYM      -0.213200
     17 C17         -1.5860     0.2220     2.5160 ca         1 AYM      -0.099800
     18 C18         -0.9100    -0.0480     3.7250 ca         1 AYM      -0.042200
     19 N19          0.2890    -0.6320     3.4220 na         1 AYM      -0.081700
     20 C20          1.1970    -1.1320     4.4280 c3         1 AYM       0.061900
     21 C21         -2.8450     0.8330     2.5580 ca         1 AYM      -0.056000
     22 C22         -3.3920     1.1490     3.7860 ca         1 AYM      -0.142000
     23 C23         -2.7080     0.8630     4.9790 ca         1 AYM      -0.090000
     24 C24         -1.4630     0.2610     4.9670 ca         1 AYM      -0.130000
     25 H011        -2.5050    -1.7630    -6.5770 hn         1 AYM       0.486000
     26 H012        -2.0890    -0.3710    -7.4730 hn         1 AYM       0.486000
     27 H04         -0.4390    -1.6050    -2.6820 h4         1 AYM       0.015100
     28 H06          0.7560     2.0300    -4.6110 ha         1 AYM       0.120000
     29 H07         -0.6880     1.4070    -6.5090 ha         1 AYM       0.123000
     30 H08          1.6280     1.6040    -2.4420 ha         1 AYM       0.195000
     31 H09          1.0130    -1.0940    -1.1610 ha         1 AYM       0.178000
     32 H131         4.2550     0.7280     1.4610 h1         1 AYM       0.042367
     33 H132         2.9360     0.8570     2.6260 h1         1 AYM       0.042367
     34 H133         3.8420    -0.6550     2.4700 h1         1 AYM       0.042367
     35 H141         1.2380    -1.9220     0.5110 h1         1 AYM       0.061200
     36 H142         2.1240    -2.0260     1.9890 h1         1 AYM       0.061200
     37 H16         -0.9320    -0.1980     0.4090 ha         1 AYM       0.207000
     38 H201         0.8190    -2.0470     4.8860 h1         1 AYM       0.048033
     39 H202         2.1700    -1.3440     3.9980 h1         1 AYM       0.048033
     40 H203         1.3380    -0.3840     5.2060 h1         1 AYM       0.048033
     41 H21         -3.3800     1.0510     1.6430 ha         1 AYM       0.115000
     42 H22         -4.3640     1.6230     3.8350 ha         1 AYM       0.110000
     43 H23         -3.1640     1.1150     5.9270 ha         1 AYM       0.109000
     44 H24         -0.9470     0.0430     5.8930 ha         1 AYM       0.112000
@<TRIPOS>BOND
     1     1     2 1   
     2     1    25 1   
     3     1    26 1   
     4     2     3 ar  
     5     2     7 ar  
     6     3     4 ar  
     7     4     5 ar  
     8     4    27 1   
     9     5     6 ar  
    10     5     8 1   
    11     6     7 ar  
    12     6    28 1   
    13     7    29 1   
    14     8     9 2   
    15     8    30 1   
    16     9    10 1   
    17     9    31 1   
    18    10    11 2   
    19    10    12 1   
    20    12    13 1   
    21    12    14 1   
    22    13    32 1   
    23    13    33 1   
    24    13    34 1   
    25    14    15 1   
    26    14    35 1   
    27    14    36 1   
    28    15    16 2   
    29    15    19 1   
    30    16    17 1   
    31    16    37 1   
    32    17    18 ar  
    33    17    21 ar  
    34    18    19 1   
    35    18    24 ar  
    36    19    20 1   
    37    20    38 1   
    38    20    39 1   
    39    20    40 1   
    40    21    22 ar  
    41    21    41 1   
    42    22    23 ar  
    43    22    42 1   
    44    23    24 ar  
    45    23    43 1   
    46    24    44 1   
@<TRIPOS>SUBSTRUCTURE
     1 AYM         1 TEMP              0 ****  ****    0 ROOT
