@<TRIPOS>MOLECULE
AYN
   33    35     1     0     0
SMALL
bcc


@<TRIPOS>ATOM
      1 C1           4.6880     1.8450     0.7410 ca         1 AYN      -0.156000
      2 C2           4.6040     0.4700     0.7800 ca         1 AYN      -0.074000
      3 C3           3.4080    -0.1430     0.3870 ca         1 AYN      -0.107800
      4 C8           1.6810    -1.4800    -0.1350 cc         1 AYN      -0.130300
      5 C9           2.9660    -1.4960     0.3260 cd         1 AYN      -0.147200
      6 C10          0.8180    -2.6280    -0.4980 c          1 AYN       0.699300
      7 C13         -0.0030     0.2710    -0.7260 ca         1 AYN       0.010800
      8 C14         -1.0620     0.0370     0.1350 ca         1 AYN      -0.072000
      9 C15         -2.3300     0.4970    -0.1990 ca         1 AYN      -0.187300
     10 C16         -2.5330     1.2080    -1.3750 ca         1 AYN      -0.073000
     11 C19         -3.4550     0.2090     0.7450 c3         1 AYN       0.722200
     12 C4           2.3330     0.6550    -0.0530 ca         1 AYN      -0.028200
     13 C5           2.4070     2.0480    -0.0770 ca         1 AYN      -0.142000
     14 C6           3.5960     2.6250     0.3200 ca         1 AYN      -0.103000
     15 N7           1.2930    -0.1780    -0.3830 na         1 AYN       0.023500
     16 O11         -0.0000    -2.5500    -1.4020 o          1 AYN      -0.591100
     17 N12          1.0400    -3.7390     0.2170 nt         1 AYN      -0.667000
     18 C17         -1.4590     1.4530    -2.2190 ca         1 AYN      -0.127000
     19 C18         -0.1950     0.9820    -1.9040 ca         1 AYN      -0.084000
     20 F20         -3.2000     0.6800     1.9740 f          1 AYN      -0.233633
     21 F21         -4.6120     0.7450     0.3500 f          1 AYN      -0.233633
     22 F22         -3.6580    -1.1100     0.8790 f          1 AYN      -0.233633
     23 H1           5.6030     2.3370     1.0450 ha         1 AYN       0.132000
     24 H2           5.4440    -0.1270     1.1150 ha         1 AYN       0.134000
     25 H3           3.5490    -2.3750     0.5510 ha         1 AYN       0.156000
     26 H4          -0.8860    -0.5000     1.0580 ha         1 AYN       0.154000
     27 H5          -3.5130     1.5740    -1.6450 ha         1 AYN       0.152000
     28 H6           1.5710     2.6580    -0.3950 ha         1 AYN       0.140000
     29 H7           3.6900     3.7030     0.3080 ha         1 AYN       0.131000
     30 H8           1.6340    -3.7470     1.0280 hn         1 AYN       0.320000
     31 H9           0.5340    -4.5830     0.0040 hn         1 AYN       0.320000
     32 H10         -1.6130     2.0060    -3.1350 ha         1 AYN       0.144000
     33 H11          0.6370     1.1560    -2.5730 ha         1 AYN       0.153000
@<TRIPOS>BOND
     1     1     2 ar  
     2     1    14 ar  
     3     1    23 1   
     4     2     3 ar  
     5     2    24 1   
     6     3     5 1   
     7     3    12 ar  
     8     4     5 2   
     9     4     6 1   
    10     4    15 1   
    11     5    25 1   
    12     6    16 2   
    13     6    17 1   
    14     7     8 ar  
    15     7    15 1   
    16     7    19 ar  
    17     8     9 ar  
    18     8    26 1   
    19     9    10 ar  
    20     9    11 1   
    21    10    18 ar  
    22    10    27 1   
    23    11    20 1   
    24    11    21 1   
    25    11    22 1   
    26    12    13 ar  
    27    12    15 1   
    28    13    14 ar  
    29    13    28 1   
    30    14    29 1   
    31    17    30 1   
    32    17    31 1   
    33    18    19 ar  
    34    18    32 1   
    35    19    33 1   
@<TRIPOS>SUBSTRUCTURE
     1 AYN         1 TEMP              0 ****  ****    0 ROOT
