@<TRIPOS>MOLECULE
AYN
   33    35     1     0     0
SMALL
No Charge or Current Charge


@<TRIPOS>ATOM
      1 C1           4.6530     1.8810     0.8820 ca         1 AYN      -0.138000
      2 C2           4.5490     0.4720     0.8910 ca         1 AYN      -0.056000
      3 C3           3.3450    -0.0880     0.4470 ca         1 AYN      -0.107800
      4 C8           1.6020    -1.5320    -0.1640 cc         1 AYN      -0.130300
      5 C9           2.9090    -1.4620     0.3320 cd         1 AYN      -0.197200
      6 C10          0.8180    -2.7710    -0.4160 c          1 AYN       0.632300
      7 C13         -0.0040     0.2520    -0.7240 ca         1 AYN       0.010800
      8 C14         -1.0720     0.1730     0.1890 ca         1 AYN      -0.054000
      9 C15         -2.3630     0.6220    -0.1710 ca         1 AYN      -0.187300
     10 C16         -2.5680     1.1400    -1.4680 ca         1 AYN      -0.055000
     11 C19         -3.5240     0.5200     0.8240 c3         1 AYN       0.358300
     12 C4           2.2990     0.6770     0.0160 ca         1 AYN      -0.028200
     13 C5           2.3700     2.0780    -0.0030 ca         1 AYN      -0.124000
     14 C6           3.5690     2.6800     0.4380 ca         1 AYN      -0.085000
     15 N7           1.2690    -0.1730    -0.3520 na         1 AYN       0.023500
     16 O11         -0.3140    -2.7940    -0.8680 o          1 AYN      -0.591100
     17 N12          1.4310    -3.9370    -0.1180 nt         1 AYN      -0.600000
     18 C17         -1.5010     1.2240    -2.3790 ca         1 AYN      -0.109000
     19 C18         -0.2200     0.7840    -2.0070 ca         1 AYN      -0.066000
     20 F20         -3.1160     0.6620     2.1060 f          1 AYN      -0.112333
     21 F21         -4.4690     1.4660     0.6140 f          1 AYN      -0.112333
     22 F22         -4.1410    -0.6800     0.7370 f          1 AYN      -0.112333
     23 H1           5.5710     2.3560     1.2190 ha         1 AYN       0.114000
     24 H2           5.3720    -0.1530     1.2300 ha         1 AYN       0.116000
     25 H3           3.5250    -2.3170     0.6010 ha         1 AYN       0.206000
     26 H4          -0.8920    -0.2410     1.1800 ha         1 AYN       0.136000
     27 H5          -3.5550     1.4800    -1.7780 ha         1 AYN       0.134000
     28 H6           1.5320     2.6810    -0.3450 ha         1 AYN       0.122000
     29 H7           3.6620     3.7640     0.4370 ha         1 AYN       0.113000
     30 H8           2.3660    -3.9370     0.2570 hn         1 AYN       0.320000
     31 H9           0.9390    -4.8040    -0.2730 hn         1 AYN       0.320000
     32 H10         -1.6680     1.6290    -3.3740 ha         1 AYN       0.126000
     33 H11          0.6040     0.8530    -2.7150 ha         1 AYN       0.135000
@<TRIPOS>BOND
     1     1     2 ar  
     2     1    14 ar  
     3     1    23 1   
     4     2     3 ar  
     5     2    24 1   
     6     3     5 1   
     7     3    12 ar  
     8     4     5 2   
     9     4     6 1   
    10     4    15 1   
    11     5    25 1   
    12     6    16 2   
    13     6    17 1   
    14     7     8 ar  
    15     7    15 1   
    16     7    19 ar  
    17     8     9 ar  
    18     8    26 1   
    19     9    10 ar  
    20     9    11 1   
    21    10    18 ar  
    22    10    27 1   
    23    11    20 1   
    24    11    21 1   
    25    11    22 1   
    26    12    13 ar  
    27    12    15 1   
    28    13    14 ar  
    29    13    28 1   
    30    14    29 1   
    31    17    30 1   
    32    17    31 1   
    33    18    19 ar  
    34    18    32 1   
    35    19    33 1   
@<TRIPOS>SUBSTRUCTURE
     1 AYN         1 TEMP              0 ****  ****    0 ROOT
