@<TRIPOS>MOLECULE
AYO
   64    67     1     0     0
SMALL
abcg2


@<TRIPOS>ATOM
      1 C1          -2.4680     1.7000     0.4690 c          1 AYO       0.607100
      2 C4          -2.0620     3.0650    -0.0370 c3         1 AYO      -0.154400
      3 C5          -0.5910     3.3550     0.3230 c3         1 AYO      -0.101000
      4 C6          -0.1380     4.6930    -0.2640 c3         1 AYO      -0.045400
      5 N2          -2.5770     0.7480    -0.4960 ns         1 AYO      -0.163000
      6 C7           1.2800     5.0650     0.1340 c3         1 AYO      -0.210400
      7 C8           0.2510     2.1970    -0.1180 cc         1 AYO       0.289300
      8 C11          1.3360     0.3130    -0.2120 cd         1 AYO       0.103000
      9 C12          0.8070     1.1710     0.7020 cc         1 AYO      -0.117300
     10 C13          0.8100     1.0890     2.1740 cx         1 AYO      -0.064400
     11 C14          2.0940     0.8570     2.9070 cx         1 AYO      -0.118900
     12 C15          1.4340     2.1960     2.9760 cx         1 AYO      -0.118900
     13 O27          2.9270     6.7580    -0.0290 o          1 AYO      -0.738000
     14 C17          1.7670     6.4380    -0.3650 c          1 AYO       0.720000
     15 O18          0.9840     7.1170    -1.0580 o          1 AYO      -0.738000
     16 O3          -2.6330     1.4650     1.6520 o          1 AYO      -0.588100
     17 C19         -2.8350    -0.6060    -0.2600 ca         1 AYO      -0.007000
     18 C24         -3.7900    -1.2830    -1.0180 ca         1 AYO       0.086000
     19 CL1         -4.6870    -0.4270    -2.2200 cl         1 AYO      -0.198000
     20 C23         -4.0410    -2.6340    -0.8360 ca         1 AYO      -0.089000
     21 C22         -3.3330    -3.3160     0.1390 ca         1 AYO       0.103000
     22 CL2         -3.6440    -4.9980     0.3850 cl         1 AYO      -0.210000
     23 C21         -2.3780    -2.6730     0.9100 ca         1 AYO      -0.084000
     24 C20         -2.1310    -1.3280     0.7000 ca         1 AYO      -0.093000
     25 O10          1.1470     0.7880    -1.4460 os         1 AYO      -0.074700
     26 N9           0.4660     1.9620    -1.3790 nd         1 AYO      -0.344300
     27 C16          2.0210    -0.9580    -0.1120 cd         1 AYO       0.242000
     28 N31          1.9070    -1.6940     0.9610 nc         1 AYO      -0.345300
     29 O30          2.6620    -2.7940     0.7330 os         1 AYO      -0.073700
     30 C29          3.2320    -2.7320    -0.4780 cc         1 AYO       0.172300
     31 C28          2.8510    -1.5780    -1.0790 cd         1 AYO      -0.214000
     32 C32          4.1220    -3.8430    -0.8950 c3         1 AYO      -0.110700
     33 C33          5.6150    -3.6680    -0.5250 c3         1 AYO      -0.040000
     34 C36          5.7910    -3.5960     0.9920 c3         1 AYO      -0.086767
     35 C35          6.3560    -4.8910    -1.0660 c3         1 AYO      -0.086767
     36 C34          6.1840    -2.4040    -1.1680 c3         1 AYO      -0.086767
     37 H1          -2.1950     3.1500    -1.1180 hc         1 AYO       0.072200
     38 H2          -2.6990     3.8160     0.4330 hc         1 AYO       0.072200
     39 H3          -0.5210     3.4100     1.4120 hc         1 AYO       0.073700
     40 H4          -0.2300     4.6620    -1.3520 hc         1 AYO       0.052700
     41 H5          -0.8330     5.4620     0.0810 hc         1 AYO       0.052700
     42 H6          -2.4900     1.0410    -1.4570 hn         1 AYO       0.172000
     43 H7           1.3770     5.0460     1.2250 hc         1 AYO       0.019700
     44 H8           1.9840     4.3060    -0.2280 hc         1 AYO       0.019700
     45 H9          -0.0750     0.6380     2.6110 hc         1 AYO       0.094700
     46 H10          2.0660     0.2180     3.7800 hc         1 AYO       0.076200
     47 H11          3.0010     0.7700     2.3220 hc         1 AYO       0.076200
     48 H12          1.8910     3.0140     2.4320 hc         1 AYO       0.076200
     49 H13          0.9440     2.4900     3.8950 hc         1 AYO       0.076200
     50 H15         -4.7830    -3.1370    -1.4400 ha         1 AYO       0.137000
     51 H16         -1.8180    -3.2140     1.6600 ha         1 AYO       0.135000
     52 H17         -1.3620    -0.8420     1.2810 ha         1 AYO       0.149000
     53 H18          3.1290    -1.2200    -2.0550 ha         1 AYO       0.165000
     54 H19          3.7550    -4.7770    -0.4610 hc         1 AYO       0.061700
     55 H20          4.0380    -3.9460    -1.9790 hc         1 AYO       0.061700
     56 H21          5.3660    -4.4720     1.4860 hc         1 AYO       0.036922
     57 H22          6.8520    -3.5540     1.2490 hc         1 AYO       0.036922
     58 H23          5.3220    -2.7070     1.4170 hc         1 AYO       0.036922
     59 H24          6.2530    -4.9710    -2.1510 hc         1 AYO       0.036922
     60 H25          7.4220    -4.8280    -0.8390 hc         1 AYO       0.036922
     61 H26          5.9750    -5.8140    -0.6250 hc         1 AYO       0.036922
     62 H27          5.7230    -1.5010    -0.7650 hc         1 AYO       0.036922
     63 H28          7.2570    -2.3330    -0.9820 hc         1 AYO       0.036922
     64 H29          6.0350    -2.4020    -2.2500 hc         1 AYO       0.036922
@<TRIPOS>BOND
     1     1     2 1   
     2     1     5 1   
     3     1    16 2   
     4     2     3 1   
     5     2    37 1   
     6     2    38 1   
     7     3     4 1   
     8     3     7 1   
     9     3    39 1   
    10     4     6 1   
    11     4    40 1   
    12     4    41 1   
    13     5    17 1   
    14     5    42 1   
    15     6    14 1   
    16     6    43 1   
    17     6    44 1   
    18     7     9 1   
    19     7    26 2   
    20     8     9 2   
    21     8    25 1   
    22     8    27 1   
    23     9    10 1   
    24    10    11 1   
    25    10    12 1   
    26    10    45 1   
    27    11    12 1   
    28    11    46 1   
    29    11    47 1   
    30    12    48 1   
    31    12    49 1   
    32    13    14 1   
    33    14    15 1   
    34    17    18 ar  
    35    17    24 ar  
    36    18    19 1   
    37    18    20 ar  
    38    20    21 ar  
    39    20    50 1   
    40    21    22 1   
    41    21    23 ar  
    42    23    24 ar  
    43    23    51 1   
    44    24    52 1   
    45    25    26 1   
    46    27    28 2   
    47    27    31 1   
    48    28    29 1   
    49    29    30 1   
    50    30    31 2   
    51    30    32 1   
    52    31    53 1   
    53    32    33 1   
    54    32    54 1   
    55    32    55 1   
    56    33    34 1   
    57    33    35 1   
    58    33    36 1   
    59    34    56 1   
    60    34    57 1   
    61    34    58 1   
    62    35    59 1   
    63    35    60 1   
    64    35    61 1   
    65    36    62 1   
    66    36    63 1   
    67    36    64 1   
@<TRIPOS>SUBSTRUCTURE
     1 AYO         1 TEMP              0 ****  ****    0 ROOT
