@<TRIPOS>MOLECULE
AYO
   64    67     1     0     0
SMALL
No Charge or Current Charge


@<TRIPOS>ATOM
      1 C1          -2.4130     1.6440     0.4740 c          1 AYO       0.607100
      2 C4          -2.1360     3.0600    -0.0590 c3         1 AYO      -0.154400
      3 C5          -0.7120     3.5400     0.3730 c3         1 AYO      -0.101000
      4 C6          -0.4110     4.9750    -0.1370 c3         1 AYO      -0.045400
      5 N2          -2.0510     0.6320    -0.4040 ns         1 AYO      -0.163000
      6 C7           0.9230     5.5610     0.3910 c3         1 AYO      -0.210400
      7 C8           0.3310     2.5150    -0.0650 cc         1 AYO       0.289300
      8 C11          1.4700     0.6590    -0.1080 cd         1 AYO       0.103000
      9 C12          0.8690     1.5020     0.7820 cc         1 AYO      -0.117300
     10 C13          0.6420     1.4630     2.2470 cx         1 AYO      -0.064400
     11 C14          1.8270     1.2880     3.1720 cx         1 AYO      -0.118900
     12 C15          1.1170     2.6130     3.1100 cx         1 AYO      -0.118900
     13 O27          0.6470     7.9150     0.5180 o          1 AYO      -0.738000
     14 C17          1.1150     6.9950    -0.1350 c          1 AYO       0.720000
     15 O18          1.6800     7.1450    -1.2070 o          1 AYO      -0.738000
     16 O3          -2.8620     1.4570     1.5980 o          1 AYO      -0.588100
     17 C19         -1.7680    -0.7490    -0.2050 ca         1 AYO      -0.007000
     18 C24         -1.2880    -1.4950    -1.3050 ca         1 AYO       0.086000
     19 Cl1         -1.1300    -0.7510    -2.8960 cl         1 AYO      -0.198000
     20 C23         -0.8980    -2.8350    -1.1480 ca         1 AYO      -0.089000
     21 C22         -0.9810    -3.4450     0.1100 ca         1 AYO       0.103000
     22 Cl2         -0.4670    -5.1150     0.3100 cl         1 AYO      -0.210000
     23 C21         -1.4620    -2.7210     1.2110 ca         1 AYO      -0.084000
     24 C20         -1.8520    -1.3780     1.0590 ca         1 AYO      -0.093000
     25 O10          1.4200     1.1590    -1.3780 os         1 AYO      -0.074700
     26 N9           0.6420     2.3590    -1.3450 nd         1 AYO      -0.344300
     27 C16          1.9540    -0.6730     0.1680 cd         1 AYO       0.242000
     28 N31          1.9300    -1.2660     1.3500 nc         1 AYO      -0.345300
     29 O30          2.4380    -2.5940     1.0960 os         1 AYO      -0.073700
     30 C29          2.7310    -2.7000    -0.2430 cc         1 AYO       0.172300
     31 C28          2.4390    -1.5190    -0.8460 cd         1 AYO      -0.214000
     32 C32          3.2230    -4.0090    -0.8020 c3         1 AYO      -0.110700
     33 C33          4.7720    -4.1820    -0.8220 c3         1 AYO      -0.040000
     34 C36          5.3460    -4.1040     0.6180 c3         1 AYO      -0.086767
     35 C35          5.1110    -5.5710    -1.4230 c3         1 AYO      -0.086767
     36 C34          5.4270    -3.0810    -1.6980 c3         1 AYO      -0.086767
     37 H1          -2.1700     3.0530    -1.1550 hc         1 AYO       0.072200
     38 H2          -2.8870     3.7500     0.3430 hc         1 AYO       0.072200
     39 H3          -0.7290     3.6040     1.4660 hc         1 AYO       0.073700
     40 H4          -0.4030     4.9820    -1.2350 hc         1 AYO       0.052700
     41 H5          -1.2300     5.6390     0.1700 hc         1 AYO       0.052700
     42 H6          -1.7700     0.9670    -1.3180 hn         1 AYO       0.172000
     43 H7           0.8380     5.5660     1.4840 hc         1 AYO       0.019700
     44 H8           1.7190     4.9090     0.0120 hc         1 AYO       0.019700
     45 H9          -0.2810     0.9640     2.5340 hc         1 AYO       0.094700
     46 H10          1.6880     0.6770     4.0610 hc         1 AYO       0.076200
     47 H11          2.8190     1.2280     2.7300 hc         1 AYO       0.076200
     48 H12          1.6370     3.4380     2.6290 hc         1 AYO       0.076200
     49 H13          0.4980     2.8990     3.9570 hc         1 AYO       0.076200
     50 H15         -0.5200    -3.3950    -1.9990 ha         1 AYO       0.137000
     51 H16         -1.5190    -3.1970     2.1870 ha         1 AYO       0.135000
     52 H17         -2.1980    -0.8440     1.9380 ha         1 AYO       0.149000
     53 H18          2.5330    -1.2920    -1.9010 ha         1 AYO       0.165000
     54 H19          2.7770    -4.8270    -0.2240 hc         1 AYO       0.061700
     55 H20          2.8350    -4.1200    -1.8220 hc         1 AYO       0.061700
     56 H21          4.8730    -4.8500     1.2690 hc         1 AYO       0.036922
     57 H22          6.4270    -4.2920     0.6180 hc         1 AYO       0.036922
     58 H23          5.1820    -3.1140     1.0600 hc         1 AYO       0.036922
     59 H24          4.7270    -5.6600    -2.4470 hc         1 AYO       0.036922
     60 H25          6.1950    -5.7320    -1.4550 hc         1 AYO       0.036922
     61 H26          4.6690    -6.3770    -0.8240 hc         1 AYO       0.036922
     62 H27          5.2620    -2.0830    -1.2760 hc         1 AYO       0.036922
     63 H28          6.5110    -3.2340    -1.7710 hc         1 AYO       0.036922
     64 H29          5.0160    -3.0930    -2.7150 hc         1 AYO       0.036922
@<TRIPOS>BOND
     1     1     2 1   
     2     1     5 1   
     3     1    16 2   
     4     2     3 1   
     5     2    37 1   
     6     2    38 1   
     7     3     4 1   
     8     3     7 1   
     9     3    39 1   
    10     4     6 1   
    11     4    40 1   
    12     4    41 1   
    13     5    17 1   
    14     5    42 1   
    15     6    14 1   
    16     6    43 1   
    17     6    44 1   
    18     7     9 1   
    19     7    26 2   
    20     8     9 2   
    21     8    25 1   
    22     8    27 1   
    23     9    10 1   
    24    10    11 1   
    25    10    12 1   
    26    10    45 1   
    27    11    12 1   
    28    11    46 1   
    29    11    47 1   
    30    12    48 1   
    31    12    49 1   
    32    13    14 1   
    33    14    15 1   
    34    17    18 ar  
    35    17    24 ar  
    36    18    19 1   
    37    18    20 ar  
    38    20    21 ar  
    39    20    50 1   
    40    21    22 1   
    41    21    23 ar  
    42    23    24 ar  
    43    23    51 1   
    44    24    52 1   
    45    25    26 1   
    46    27    28 2   
    47    27    31 1   
    48    28    29 1   
    49    29    30 1   
    50    30    31 2   
    51    30    32 1   
    52    31    53 1   
    53    32    33 1   
    54    32    54 1   
    55    32    55 1   
    56    33    34 1   
    57    33    35 1   
    58    33    36 1   
    59    34    56 1   
    60    34    57 1   
    61    34    58 1   
    62    35    59 1   
    63    35    60 1   
    64    35    61 1   
    65    36    62 1   
    66    36    63 1   
    67    36    64 1   
@<TRIPOS>SUBSTRUCTURE
     1 AYO         1 TEMP              0 ****  ****    0 ROOT
