@<TRIPOS>MOLECULE
AYQ
   65    66     1     0     0
SMALL
bcc


@<TRIPOS>ATOM
      1 CAA          3.5750    -3.4690     1.8250 c3         1 AYQ       0.097300
      2 OAI          3.7290    -2.9130    -0.8980 o          1 AYQ      -0.582100
      3 OAJ         -1.1580    -1.4720    -1.9440 o          1 AYQ      -0.640100
      4 OAM          7.4370     1.1990     1.1080 o          1 AYQ      -0.895500
      5 OAK          6.2580     3.0060     2.4990 o          1 AYQ      -0.895500
      6 OAL          8.0750     3.6760     0.8150 o          1 AYQ      -0.895500
      7 CAN          4.4460     1.8810    -1.6230 ca         1 AYQ      -0.232000
      8 CAO          4.1780     1.3550     0.6980 ca         1 AYQ      -0.232000
      9 CAP          3.3810     1.0500    -1.9310 ca         1 AYQ      -0.081000
     10 CAQ          3.1130     0.5280     0.3750 ca         1 AYQ      -0.081000
     11 NAU          2.5360    -2.8850     1.0100 ns         1 AYQ      -0.577900
     12 CBC          2.7040    -2.6340    -0.2920 c          1 AYQ       0.708100
     13 CBD         -0.8520    -1.1450    -0.8050 c          1 AYQ       0.708100
     14 CBE          4.8700     2.0520    -0.3010 ca         1 AYQ       0.330100
     15 CBF          2.6950     0.3460    -0.9420 ca         1 AYQ      -0.229300
     16 CBI          1.5480    -2.0080    -1.0140 cx         1 AYQ      -0.209700
     17 CBJ          0.5700    -1.0770    -0.3620 cx         1 AYQ      -0.263700
     18 CBK          1.5810    -0.5460    -1.3500 cx         1 AYQ       0.076600
     19 PBL          7.0370     2.6550     1.2410 p5         1 AYQ       1.248900
     20 N           -1.7510    -0.8190     0.1400 ns         1 AYQ      -0.567900
     21 CA          -3.1740    -0.7740    -0.0860 c3         1 AYQ       0.032700
     22 C           -3.7170     0.5560     0.4220 c          1 AYQ       0.663100
     23 O           -3.2280     1.1260     1.3840 o          1 AYQ      -0.584100
     24 CB          -3.9160    -1.9140     0.6230 c3         1 AYQ      -0.077400
     25 CG          -3.4480    -3.2750     0.1380 c3         1 AYQ      -0.159400
     26 CD          -4.2560    -4.4250     0.7060 c          1 AYQ       0.670100
     27 OE1         -5.2900    -4.2600     1.3370 o          1 AYQ      -0.615100
     28 NE2         -3.7480    -5.6400     0.4460 nt         1 AYQ      -0.683000
     29 NAV         -4.7840     1.0250    -0.2430 ns         1 AYQ      -0.549900
     30 CBH         -5.5540     2.1270     0.2690 c3         1 AYQ       0.042700
     31 CBA         -6.2710     1.7260     1.5630 c          1 AYQ       0.654100
     32 OAG         -6.5420     0.5650     1.8130 o          1 AYQ      -0.597100
     33 CAT         -6.5740     2.5680    -0.7740 c3         1 AYQ      -0.175400
     34 CAZ         -5.9130     3.2070    -1.9840 c          1 AYQ       0.668100
     35 OAF         -4.9070     3.8910    -1.8790 o          1 AYQ      -0.575100
     36 NAC         -6.5370     2.9840    -3.1460 nt         1 AYQ      -0.679000
     37 NAD         -6.5970     2.7590     2.3500 nt         1 AYQ      -0.674000
     38 HAA          3.1870    -3.6040     2.8310 h1         1 AYQ       0.037367
     39 HAAA         3.8870    -4.4410     1.4420 h1         1 AYQ       0.037367
     40 HAN          4.9580     2.4140    -2.4160 ha         1 AYQ       0.149500
     41 HAO          4.4600     1.4890     1.7330 ha         1 AYQ       0.149500
     42 HAP          3.0810     0.9430    -2.9670 ha         1 AYQ       0.080500
     43 HAQ          2.6060     0.0230     1.1880 ha         1 AYQ       0.080500
     44 HBI          1.1440    -2.6490    -1.7910 hc         1 AYQ       0.093700
     45 HBJ          0.7310    -0.8140     0.6780 hc         1 AYQ       0.096700
     46 HBK          1.1750    -0.3150    -2.3290 hc         1 AYQ       0.076700
     47 H28          4.4510    -2.8230     1.8790 h1         1 AYQ       0.037367
     48 H29          1.6520    -2.6750     1.4420 hn         1 AYQ       0.302500
     49 HN          -1.4230    -0.5340     1.0500 hn         1 AYQ       0.338500
     50 HA          -3.3430    -0.8550    -1.1610 h1         1 AYQ       0.084700
     51 HB          -3.7720    -1.8230     1.7030 hc         1 AYQ       0.066700
     52 HBA         -4.9850    -1.7960     0.4400 hc         1 AYQ       0.066700
     53 HG          -3.5090    -3.3280    -0.9540 hc         1 AYQ       0.068700
     54 HGA         -2.3940    -3.4260     0.3850 hc         1 AYQ       0.068700
     55 HNE2        -2.9050    -5.7600    -0.0880 hn         1 AYQ       0.310500
     56 HNEA        -4.2410    -6.4720     0.7280 hn         1 AYQ       0.310500
     57 HNAV        -5.1940     0.4510    -0.9630 hn         1 AYQ       0.315500
     58 HBH         -4.8820     2.9650     0.4730 h1         1 AYQ       0.110700
     59 HAT         -7.2100     1.7270    -1.0620 hc         1 AYQ       0.062700
     60 HATA        -7.2390     3.3160    -0.3350 hc         1 AYQ       0.062700
     61 HNAC        -7.3770     2.4340    -3.2010 hn         1 AYQ       0.312000
     62 HNAA        -6.2240     3.4370    -3.9890 hn         1 AYQ       0.312000
     63 HNAD        -6.3100     3.7000     2.1430 hn         1 AYQ       0.313500
     64 HNAB        -7.1170     2.6120     3.2000 hn         1 AYQ       0.313500
     65 OAX          5.8830     2.8820    -0.0660 os         1 AYQ      -0.405500
@<TRIPOS>BOND
     1     1    11 1   
     2     1    38 1   
     3     1    39 1   
     4     1    47 1   
     5     2    12 2   
     6     3    13 2   
     7     4    19 1   
     8     5    19 1   
     9     6    19 1   
    10     7     9 ar  
    11     7    14 ar  
    12     7    40 1   
    13     8    10 ar  
    14     8    14 ar  
    15     8    41 1   
    16     9    15 ar  
    17     9    42 1   
    18    10    15 ar  
    19    10    43 1   
    20    11    12 1   
    21    11    48 1   
    22    12    16 1   
    23    13    17 1   
    24    13    20 1   
    25    14    65 1   
    26    15    18 1   
    27    16    17 1   
    28    16    18 1   
    29    16    44 1   
    30    17    18 1   
    31    17    45 1   
    32    18    46 1   
    33    19    65 1   
    34    20    21 1   
    35    20    49 1   
    36    21    22 1   
    37    21    24 1   
    38    21    50 1   
    39    22    23 2   
    40    22    29 1   
    41    24    25 1   
    42    24    51 1   
    43    24    52 1   
    44    25    26 1   
    45    25    53 1   
    46    25    54 1   
    47    26    27 2   
    48    26    28 1   
    49    28    55 1   
    50    28    56 1   
    51    29    30 1   
    52    29    57 1   
    53    30    31 1   
    54    30    33 1   
    55    30    58 1   
    56    31    32 2   
    57    31    37 1   
    58    33    34 1   
    59    33    59 1   
    60    33    60 1   
    61    34    35 2   
    62    34    36 1   
    63    36    61 1   
    64    36    62 1   
    65    37    63 1   
    66    37    64 1   
@<TRIPOS>SUBSTRUCTURE
     1 AYQ         1 TEMP              0 ****  ****    0 ROOT
