@<TRIPOS>MOLECULE
AYQ
   65    66     1     0     0
SMALL
No Charge or Current Charge


@<TRIPOS>ATOM
      1 CAA          4.1360    -3.9150    -1.4540 c3         1 AYQ       0.097300
      2 OAI          3.3690    -1.7250    -3.1290 o          1 AYQ      -0.582100
      3 OAJ         -1.6040    -2.6370    -1.3940 o          1 AYQ      -0.640100
      4 OAM          6.0620     1.2210     3.2800 o          1 AYQ      -0.895500
      5 OAK          4.7460     3.2660     3.4110 o          1 AYQ      -0.895500
      6 OAL          7.0810     3.3600     2.7600 o          1 AYQ      -0.895500
      7 CAN          4.2070     1.7420    -0.8130 ca         1 AYQ      -0.214000
      8 CAO          3.3800     1.0670     1.3670 ca         1 AYQ      -0.214000
      9 CAP          3.1290     1.0870    -1.4290 ca         1 AYQ      -0.063000
     10 CAQ          2.3010     0.4090     0.7520 ca         1 AYQ      -0.063000
     11 NAU          2.8620    -3.1980    -1.4690 ns         1 AYQ      -0.510900
     12 CBC          2.5760    -2.1360    -2.2940 c          1 AYQ       0.641100
     13 CBD         -1.0280    -1.7610    -0.7680 c          1 AYQ       0.641100
     14 CBE          4.3440     1.7370     0.5850 ca         1 AYQ       0.330100
     15 CBF          2.1750     0.4070    -0.6510 ca         1 AYQ      -0.229300
     16 CBI          1.1900    -1.5530    -2.1350 cx         1 AYQ      -0.209700
     17 CBJ          0.4650    -1.5900    -0.7920 cx         1 AYQ      -0.263700
     18 CBK          1.0200    -0.2850    -1.3230 cx         1 AYQ       0.076600
     19 PBL          5.8280     2.5600     2.6680 p5         1 AYQ       1.248900
     20 N           -1.6800    -0.8510     0.0260 ns         1 AYQ      -0.500900
     21 CA          -3.1460    -0.7840     0.2290 c3         1 AYQ       0.032700
     22 C           -3.6190     0.6990     0.2290 c          1 AYQ       0.596100
     23 O           -2.8520     1.6470     0.3430 o          1 AYQ      -0.584100
     24 CB          -3.5670    -1.5120     1.5350 c3         1 AYQ      -0.077400
     25 CG          -3.2150    -3.0230     1.5710 c3         1 AYQ      -0.159400
     26 CD          -3.7010    -3.7900     2.8070 c          1 AYQ       0.603100
     27 OE1         -4.3030    -3.2790     3.7370 o          1 AYQ      -0.615100
     28 NE2         -3.4210    -5.1090     2.8230 nt         1 AYQ      -0.616000
     29 NAV         -4.9810     0.8780     0.0870 ns         1 AYQ      -0.482900
     30 CBH         -5.6760     2.1870     0.0680 c3         1 AYQ       0.042700
     31 CBA         -7.0020     2.1040     0.8860 c          1 AYQ       0.587100
     32 OAG         -7.4320     1.0720     1.3780 o          1 AYQ      -0.597100
     33 CAT         -5.9040     2.6890    -1.3860 c3         1 AYQ      -0.175400
     34 CAZ         -4.5940     2.9280    -2.1370 c          1 AYQ       0.601100
     35 OAF         -3.9280     3.9400    -2.0060 o          1 AYQ      -0.575100
     36 NAC         -4.2140     1.9610    -3.0010 nt         1 AYQ      -0.612000
     37 NAD         -7.7000     3.2540     1.0330 nt         1 AYQ      -0.607000
     38 HAA          4.1030    -4.7050    -0.6940 h1         1 AYQ       0.037367
     39 HAAA         4.3180    -4.3650    -2.4390 h1         1 AYQ       0.037367
     40 HAN          4.9430     2.2610    -1.4210 ha         1 AYQ       0.131500
     41 HAO          3.4540     1.0490     2.4490 ha         1 AYQ       0.131500
     42 HAP          3.0370     1.1050    -2.5130 ha         1 AYQ       0.062500
     43 HAQ          1.5630    -0.0940     1.3720 ha         1 AYQ       0.062500
     44 HBI          0.5750    -1.6360    -3.0270 hc         1 AYQ       0.093700
     45 HBJ          0.9790    -2.0330     0.0560 hc         1 AYQ       0.096700
     46 HBK          0.3000     0.4330    -1.7130 hc         1 AYQ       0.076700
     47 H28          4.9490    -3.2170    -1.2160 h1         1 AYQ       0.037367
     48 H29          2.1310    -3.4820    -0.8280 hn         1 AYQ       0.302500
     49 HN          -1.1000    -0.1490     0.4700 hn         1 AYQ       0.338500
     50 HA          -3.6440    -1.2680    -0.6210 h1         1 AYQ       0.084700
     51 HB          -3.0990    -1.0120     2.3920 hc         1 AYQ       0.066700
     52 HBA         -4.6520    -1.4060     1.6670 hc         1 AYQ       0.066700
     53 HG          -3.5840    -3.5510     0.6840 hc         1 AYQ       0.068700
     54 HGA         -2.1370    -3.1990     1.4840 hc         1 AYQ       0.068700
     55 HNE2        -2.9230    -5.5300     2.0530 hn         1 AYQ       0.310500
     56 HNEA        -3.7150    -5.6660     3.6110 hn         1 AYQ       0.310500
     57 HNAV        -5.5500     0.0390     0.0430 hn         1 AYQ       0.315500
     58 HBH         -5.0540     2.9260     0.5940 h1         1 AYQ       0.110700
     59 HAT         -6.4980     1.9300    -1.9090 hc         1 AYQ       0.062700
     60 HATA        -6.4530     3.6370    -1.3570 hc         1 AYQ       0.062700
     61 HNAC        -4.7800     1.1340    -3.1150 hn         1 AYQ       0.312000
     62 HNAA        -3.3620     2.0790    -3.5290 hn         1 AYQ       0.312000
     63 HNAD        -7.3570     4.1150     0.6310 hn         1 AYQ       0.313500
     64 HNAB        -8.5650     3.2410     1.5520 hn         1 AYQ       0.313500
     65 OAX          5.4220     2.3980     1.1160 os         1 AYQ      -0.405500
@<TRIPOS>BOND
     1     1    11 1   
     2     1    38 1   
     3     1    39 1   
     4     1    47 1   
     5     2    12 2   
     6     3    13 2   
     7     4    19 1   
     8     5    19 1   
     9     6    19 1   
    10     7     9 ar  
    11     7    14 ar  
    12     7    40 1   
    13     8    10 ar  
    14     8    14 ar  
    15     8    41 1   
    16     9    15 ar  
    17     9    42 1   
    18    10    15 ar  
    19    10    43 1   
    20    11    12 1   
    21    11    48 1   
    22    12    16 1   
    23    13    17 1   
    24    13    20 1   
    25    14    65 1   
    26    15    18 1   
    27    16    17 1   
    28    16    18 1   
    29    16    44 1   
    30    17    18 1   
    31    17    45 1   
    32    18    46 1   
    33    19    65 1   
    34    20    21 1   
    35    20    49 1   
    36    21    22 1   
    37    21    24 1   
    38    21    50 1   
    39    22    23 2   
    40    22    29 1   
    41    24    25 1   
    42    24    51 1   
    43    24    52 1   
    44    25    26 1   
    45    25    53 1   
    46    25    54 1   
    47    26    27 2   
    48    26    28 1   
    49    28    55 1   
    50    28    56 1   
    51    29    30 1   
    52    29    57 1   
    53    30    31 1   
    54    30    33 1   
    55    30    58 1   
    56    31    32 2   
    57    31    37 1   
    58    33    34 1   
    59    33    59 1   
    60    33    60 1   
    61    34    35 2   
    62    34    36 1   
    63    36    61 1   
    64    36    62 1   
    65    37    63 1   
    66    37    64 1   
@<TRIPOS>SUBSTRUCTURE
     1 AYQ         1 TEMP              0 ****  ****    0 ROOT
