@<TRIPOS>MOLECULE
AYR
   40    42     1     0     0
SMALL
No Charge or Current Charge


@<TRIPOS>ATOM
      1 C1          26.4200   -22.7820    21.0150 ce         1 AYR      -0.123200
      2 C2          24.9830   -22.7560    21.4170 ca         1 AYR      -0.062800
      3 C3          24.5870   -22.5150    22.7610 ca         1 AYR      -0.092000
      4 C4          23.2220   -22.4960    23.1190 ca         1 AYR      -0.101000
      5 C5          22.2740   -22.7180    22.1140 ca         1 AYR       0.062100
      6 C6          22.6440   -22.9500    20.8210 ca         1 AYR       0.049100
      7 C7          23.9890   -22.9780    20.4330 ca         1 AYR      -0.082000
      8 O8          20.9270   -22.7410    22.2820 os         1 AYR      -0.342100
      9 C9          20.4330   -22.9680    20.9140 c5         1 AYR       0.373600
     10 O10         21.5780   -23.1500    20.0050 os         1 AYR      -0.343100
     11 C11         27.5340   -22.5930    21.7770 cf         1 AYR      -0.198000
     12 C12         28.8990   -22.6430    21.2680 cf         1 AYR      -0.106000
     13 C13         30.0110   -22.4530    22.0360 ce         1 AYR      -0.289200
     14 C14         31.4160   -22.4910    21.5130 c          1 AYR       0.609300
     15 O15         31.6080   -22.6550    20.3150 o          1 AYR      -0.617100
     16 N16         32.5170   -22.3300    22.3940 n          1 AYR      -0.403800
     17 C17         32.4370   -22.1610    23.8710 c6         1 AYR       0.097500
     18 C18         32.8660   -20.7290    24.2680 c6         1 AYR      -0.100400
     19 C19         34.2940   -20.4240    23.7460 c6         1 AYR      -0.073400
     20 C20         34.4050   -20.7120    22.2260 c6         1 AYR      -0.100400
     21 C21         33.9040   -22.1390    21.8890 c6         1 AYR       0.097500
     22 H1          26.5740   -22.9820    19.9530 ha         1 AYR       0.178000
     23 H2          25.3290   -22.3430    23.5350 ha         1 AYR       0.119000
     24 H3          22.9120   -22.3150    24.1450 ha         1 AYR       0.135000
     25 H4          24.2540   -23.1680    19.3960 ha         1 AYR       0.135000
     26 H5          19.8530   -22.0960    20.5920 h2         1 AYR       0.065700
     27 H6          27.4210   -22.3900    22.8420 ha         1 AYR       0.174000
     28 H7          29.0250   -22.8460    20.2000 ha         1 AYR       0.197000
     29 H8          29.8590   -22.2440    23.0870 ha         1 AYR       0.178000
     30 H9          31.4470   -22.3890    24.2790 h1         1 AYR       0.054200
     31 H10         33.1250   -22.8790    24.3400 h1         1 AYR       0.054200
     32 H11         32.8330   -20.6180    25.3610 hc         1 AYR       0.049700
     33 H12         32.1520   -20.0030    23.8550 hc         1 AYR       0.049700
     34 H13         35.0220   -21.0420    24.2900 hc         1 AYR       0.041200
     35 H14         34.5550   -19.3770    23.9520 hc         1 AYR       0.041200
     36 H15         35.4450   -20.5920    21.8950 hc         1 AYR       0.049700
     37 H16         33.8110   -19.9760    21.6670 hc         1 AYR       0.049700
     38 H17         33.9610   -22.2980    20.8030 h1         1 AYR       0.054200
     39 H18         34.5640   -22.8810    22.3600 h1         1 AYR       0.054200
     40 H19         19.8040   -23.8660    20.8950 h2         1 AYR       0.065700
@<TRIPOS>BOND
     1     1     2 1   
     2     1    11 2   
     3     1    22 1   
     4     2     3 ar  
     5     2     7 ar  
     6     3     4 ar  
     7     3    23 1   
     8     4     5 ar  
     9     4    24 1   
    10     5     6 ar  
    11     5     8 1   
    12     6     7 ar  
    13     6    10 1   
    14     7    25 1   
    15     8     9 1   
    16     9    10 1   
    17     9    26 1   
    18     9    40 1   
    19    11    12 1   
    20    11    27 1   
    21    12    13 2   
    22    12    28 1   
    23    13    14 1   
    24    13    29 1   
    25    14    15 2   
    26    14    16 1   
    27    16    17 1   
    28    16    21 1   
    29    17    18 1   
    30    17    30 1   
    31    17    31 1   
    32    18    19 1   
    33    18    32 1   
    34    18    33 1   
    35    19    20 1   
    36    19    34 1   
    37    19    35 1   
    38    20    21 1   
    39    20    36 1   
    40    20    37 1   
    41    21    38 1   
    42    21    39 1   
@<TRIPOS>SUBSTRUCTURE
     1 AYR         1 TEMP              0 ****  ****    0 ROOT
