@<TRIPOS>MOLECULE
AYR
   40    42     1     0     0
SMALL
abcg2


@<TRIPOS>ATOM
      1 C1          26.4580   -22.5530    21.0960 ce         1 AYR      -0.123200
      2 C2          25.0510   -22.6360    21.4680 ca         1 AYR      -0.062800
      3 C3          24.6210   -22.6700    22.7960 ca         1 AYR      -0.092000
      4 C4          23.2710   -22.7620    23.1350 ca         1 AYR      -0.101000
      5 C5          22.3680   -22.8200    22.0990 ca         1 AYR       0.062100
      6 C6          22.7790   -22.7830    20.7760 ca         1 AYR       0.049100
      7 C7          24.1000   -22.6920    20.4270 ca         1 AYR      -0.082000
      8 O8          21.0200   -22.8950    22.1520 os         1 AYR      -0.342100
      9 C9          20.5780   -23.0860    20.8120 c5         1 AYR       0.373600
     10 O10         21.6920   -22.8310    19.9680 os         1 AYR      -0.343100
     11 C11         27.5180   -22.5370    21.9240 cf         1 AYR      -0.198000
     12 C12         28.8700   -22.4670    21.4310 cf         1 AYR      -0.106000
     13 C13         29.9510   -22.4660    22.2280 ce         1 AYR      -0.289200
     14 C14         31.3130   -22.4310    21.6510 c          1 AYR       0.609300
     15 O15         31.4720   -22.5330    20.4340 o          1 AYR      -0.617100
     16 N16         32.3660   -22.3250    22.4960 n          1 AYR      -0.403800
     17 C17         32.3160   -21.9520    23.9020 c6         1 AYR       0.097500
     18 C18         32.9080   -20.5620    24.1110 c6         1 AYR      -0.100400
     19 C19         34.3230   -20.4750    23.5490 c6         1 AYR      -0.073400
     20 C20         34.3590   -20.9460    22.0990 c6         1 AYR      -0.100400
     21 C21         33.7220   -22.3240    21.9680 c6         1 AYR       0.097500
     22 H1          26.6510   -22.5050    20.0280 ha         1 AYR       0.178000
     23 H2          25.3450   -22.6270    23.5980 ha         1 AYR       0.119000
     24 H3          22.9540   -22.7870    24.1690 ha         1 AYR       0.135000
     25 H4          24.4080   -22.6620    19.3900 ha         1 AYR       0.135000
     26 H5          19.7740   -22.3860    20.5860 h2         1 AYR       0.065700
     27 H6          27.3860   -22.5850    23.0000 ha         1 AYR       0.174000
     28 H7          29.0010   -22.4190    20.3550 ha         1 AYR       0.197000
     29 H8          29.8040   -22.5210    23.2980 ha         1 AYR       0.178000
     30 H9          31.3020   -21.9860    24.2850 h1         1 AYR       0.054200
     31 H10         32.8930   -22.6890    24.4710 h1         1 AYR       0.054200
     32 H11         32.9030   -20.3320    25.1790 hc         1 AYR       0.049700
     33 H12         32.2640   -19.8250    23.6220 hc         1 AYR       0.049700
     34 H13         34.9870   -21.1060    24.1480 hc         1 AYR       0.041200
     35 H14         34.7020   -19.4540    23.6320 hc         1 AYR       0.041200
     36 H15         35.3880   -20.9920    21.7350 hc         1 AYR       0.049700
     37 H16         33.8240   -20.2390    21.4590 hc         1 AYR       0.049700
     38 H17         33.7090   -22.6560    20.9340 h1         1 AYR       0.054200
     39 H18         34.3060   -23.0530    22.5410 h1         1 AYR       0.054200
     40 H19         20.2380   -24.1180    20.6790 h2         1 AYR       0.065700
@<TRIPOS>BOND
     1     1     2 1   
     2     1    11 2   
     3     1    22 1   
     4     2     3 ar  
     5     2     7 ar  
     6     3     4 ar  
     7     3    23 1   
     8     4     5 ar  
     9     4    24 1   
    10     5     6 ar  
    11     5     8 1   
    12     6     7 ar  
    13     6    10 1   
    14     7    25 1   
    15     8     9 1   
    16     9    10 1   
    17     9    26 1   
    18     9    40 1   
    19    11    12 1   
    20    11    27 1   
    21    12    13 2   
    22    12    28 1   
    23    13    14 1   
    24    13    29 1   
    25    14    15 2   
    26    14    16 1   
    27    16    17 1   
    28    16    21 1   
    29    17    18 1   
    30    17    30 1   
    31    17    31 1   
    32    18    19 1   
    33    18    32 1   
    34    18    33 1   
    35    19    20 1   
    36    19    34 1   
    37    19    35 1   
    38    20    21 1   
    39    20    36 1   
    40    20    37 1   
    41    21    38 1   
    42    21    39 1   
@<TRIPOS>SUBSTRUCTURE
     1 AYR         1 TEMP              0 ****  ****    0 ROOT
