@<TRIPOS>MOLECULE
AYS
   28    29     1     0     0
SMALL
No Charge or Current Charge


@<TRIPOS>ATOM
      1 N1           1.8140     2.4910    -1.1290 nt         1 AYS      -0.609000
      2 C4           1.8810    -0.8150     0.5340 ca         1 AYS       0.355000
      3 C5           2.3780     0.3480    -0.1090 ca         1 AYS      -0.190600
      4 C6           3.6290     0.2750    -0.7720 ca         1 AYS      -0.064000
      5 C7           1.6530     1.6700    -0.0660 c          1 AYS       0.623700
      6 C8          -0.6500    -0.5120     0.7320 ca         1 AYS       0.331000
      7 C10         -2.9980    -0.1280     1.2740 ca         1 AYS      -0.069000
      8 C13         -0.9160    -0.1860    -0.6120 ca         1 AYS      -0.155500
      9 C1           4.3760    -0.9130    -0.7700 ca         1 AYS      -0.145000
     10 C2           3.8930    -2.0460    -0.1040 ca         1 AYS      -0.062000
     11 C3           2.6510    -1.9900     0.5440 ca         1 AYS      -0.174000
     12 O1           1.0140     2.0750     0.8910 o          1 AYS      -0.583100
     13 C9          -1.6970    -0.4930     1.6680 ca         1 AYS      -0.155500
     14 C11         -3.2550     0.2110    -0.0650 ca         1 AYS       0.083000
     15 C12         -2.2160     0.1790    -1.0100 ca         1 AYS      -0.069000
     16 Cl1         -4.8790     0.6670    -0.5610 cl         1 AYS      -0.207000
     17 H1           2.3420     2.1810    -1.9300 hn         1 AYS       0.312000
     18 H2           1.3700     3.3960    -1.1230 hn         1 AYS       0.312000
     19 H3           4.0510     1.1490    -1.2650 ha         1 AYS       0.116000
     20 H4          -3.8040    -0.1080     2.0030 ha         1 AYS       0.125500
     21 H5          -0.1240    -0.2250    -1.3520 ha         1 AYS       0.121000
     22 H6           5.3400    -0.9500    -1.2750 ha         1 AYS       0.119000
     23 H7           4.4750    -2.9660    -0.0970 ha         1 AYS       0.116000
     24 H8           2.2730    -2.8800     1.0390 ha         1 AYS       0.116000
     25 H9           0.6250    -1.4580     1.9930 hn         1 AYS       0.495000
     26 H10         -1.5040    -0.7530     2.7050 ha         1 AYS       0.121000
     27 H11         -2.4180     0.4330    -2.0480 ha         1 AYS       0.125500
     28 N2           0.6270    -0.8920     1.1440 nu         1 AYS      -0.990000
@<TRIPOS>BOND
     1     1     5 1   
     2     1    17 1   
     3     1    18 1   
     4     2     3 ar  
     5     2    11 ar  
     6     2    28 1   
     7     3     4 ar  
     8     3     5 1   
     9     4     9 ar  
    10     4    19 1   
    11     5    12 2   
    12     6     8 ar  
    13     6    13 ar  
    14     6    28 1   
    15     7    13 ar  
    16     7    14 ar  
    17     7    20 1   
    18     8    15 ar  
    19     8    21 1   
    20     9    10 ar  
    21     9    22 1   
    22    10    11 ar  
    23    10    23 1   
    24    11    24 1   
    25    13    26 1   
    26    14    15 ar  
    27    14    16 1   
    28    15    27 1   
    29    25    28 1   
@<TRIPOS>SUBSTRUCTURE
     1 AYS         1 TEMP              0 ****  ****    0 ROOT
