@<TRIPOS>MOLECULE
AYS
   28    29     1     0     0
SMALL
bcc


@<TRIPOS>ATOM
      1 N1           1.4290     2.2870    -1.0370 nt         1 AYS      -0.676000
      2 C4           1.8690    -0.9090     0.5360 ca         1 AYS       0.216600
      3 C5           2.3070     0.2790    -0.0710 ca         1 AYS      -0.190600
      4 C6           3.5350     0.2940    -0.7280 ca         1 AYS      -0.082000
      5 C7           1.5600     1.5670     0.0900 c          1 AYS       0.690700
      6 C8          -0.5680    -0.5280     0.7220 ca         1 AYS       0.192600
      7 C10         -2.8580     0.0940     1.1960 ca         1 AYS      -0.087000
      8 C13         -0.7980    -0.2660    -0.6290 ca         1 AYS      -0.173500
      9 C1           4.3520    -0.8240    -0.7590 ca         1 AYS      -0.163000
     10 C2           3.9300    -1.9860    -0.1300 ca         1 AYS      -0.080000
     11 C3           2.6960    -2.0310     0.4930 ca         1 AYS      -0.192000
     12 O1           1.1500     1.9440     1.1740 o          1 AYS      -0.583100
     13 C9          -1.6170    -0.3430     1.6240 ca         1 AYS      -0.173500
     14 C11         -3.0620     0.3720    -0.1470 ca         1 AYS      -0.008600
     15 C12         -2.0330     0.1910    -1.0580 ca         1 AYS      -0.087000
     16 CL1         -4.6060     0.9410    -0.6900 cl         1 AYS      -0.115400
     17 H1           1.6800     1.9240    -1.9390 hn         1 AYS       0.312000
     18 H2           0.9530     3.1720    -1.0190 hn         1 AYS       0.312000
     19 H3           3.8810     1.2120    -1.1860 ha         1 AYS       0.134000
     20 H4          -3.6550     0.2280     1.9130 ha         1 AYS       0.143500
     21 H5          -0.0270    -0.4410    -1.3660 ha         1 AYS       0.139000
     22 H6           5.3100    -0.7830    -1.2580 ha         1 AYS       0.137000
     23 H7           4.5530    -2.8690    -0.1430 ha         1 AYS       0.134000
     24 H8           2.3570    -2.9560     0.9440 ha         1 AYS       0.134000
     25 H9           0.6010    -1.6630     1.9440 hn         1 AYS       0.439800
     26 H10         -1.4620    -0.5330     2.6790 ha         1 AYS       0.139000
     27 H11         -2.1940     0.3880    -2.1090 ha         1 AYS       0.143500
     28 N2           0.6480    -1.0000     1.1900 nu         1 AYS      -0.658000
@<TRIPOS>BOND
     1     1     5 1   
     2     1    17 1   
     3     1    18 1   
     4     2     3 ar  
     5     2    11 ar  
     6     2    28 1   
     7     3     4 ar  
     8     3     5 1   
     9     4     9 ar  
    10     4    19 1   
    11     5    12 2   
    12     6     8 ar  
    13     6    13 ar  
    14     6    28 1   
    15     7    13 ar  
    16     7    14 ar  
    17     7    20 1   
    18     8    15 ar  
    19     8    21 1   
    20     9    10 ar  
    21     9    22 1   
    22    10    11 ar  
    23    10    23 1   
    24    11    24 1   
    25    13    26 1   
    26    14    15 ar  
    27    14    16 1   
    28    15    27 1   
    29    25    28 1   
@<TRIPOS>SUBSTRUCTURE
     1 AYS         1 TEMP              0 ****  ****    0 ROOT
