@<TRIPOS>MOLECULE
AYT
   73    75     1     0     0
SMALL
bcc


@<TRIPOS>ATOM
      1 C4           5.0800     0.0100    -0.6260 ce         1 AYT      -0.076200
      2 C5           6.4840    -0.3220    -0.1990 c6         1 AYT      -0.074200
      3 C6           7.0400     0.7510     0.7420 c6         1 AYT       0.150100
      4 C7           4.0630    -0.8460    -0.4170 cf         1 AYT      -0.114000
      5 C10          2.6630    -0.6070    -0.7040 cf         1 AYT      -0.139000
      6 C11          1.6490    -1.4620    -0.4950 c2         1 AYT      -0.079400
      7 C12          0.2250    -1.1180    -0.7940 c5         1 AYT      -0.038500
      8 C13         -0.6700    -1.1640     0.4740 c5         1 AYT      -0.027000
      9 C14         -0.5980    -2.5950     1.0180 c6         1 AYT      -0.063400
     10 C15          0.8420    -3.0380     1.2840 c6         1 AYT      -0.071400
     11 C1           6.9720     2.1150     0.0740 c6         1 AYT      -0.070400
     12 C2           5.5400     2.4510    -0.3410 c6         1 AYT      -0.039200
     13 C3           4.9410     1.3650    -1.1980 ce         1 AYT      -0.078200
     14 O9           8.3850     0.4980     1.0890 oh         1 AYT      -0.596800
     15 C16          1.7650    -2.8500     0.0730 c6         1 AYT      -0.041200
     16 C17         -2.0290    -0.7500    -0.1510 c5         1 AYT      -0.082700
     17 C18         -1.6510     0.3180    -1.2180 c5         1 AYT      -0.076400
     18 C19         -0.1360     0.1980    -1.4610 c5         1 AYT      -0.070400
     19 C20         -3.2250    -0.3330     0.7410 c3         1 AYT       0.178800
     20 C21         -4.4610    -0.1750    -0.1740 c3         1 AYT      -0.109400
     21 C22         -3.5190    -1.3750     1.8130 c3         1 AYT      -0.080100
     22 C23         -5.6900     0.4590     0.4690 c3         1 AYT      -0.070400
     23 O24         -2.9810     0.8750     1.4460 oh         1 AYT      -0.596800
     24 C25         -6.8430     0.5790    -0.5210 c3         1 AYT      -0.074400
     25 C26         -8.1160     1.2180     0.0410 c3         1 AYT      -0.059700
     26 C27         -7.8820     2.6530     0.5020 c3         1 AYT      -0.087600
     27 C28         -9.2270     1.1750    -1.0040 c3         1 AYT      -0.087600
     28 C29         -0.1720    -0.1610     1.5160 c3         1 AYT      -0.075100
     29 H1           6.5100    -1.3030     0.2850 hc         1 AYT       0.052200
     30 H2           7.1380    -0.3710    -1.0780 hc         1 AYT       0.052200
     31 H3           6.4070     0.7730     1.6420 h1         1 AYT       0.031700
     32 H4           4.3240    -1.7970     0.0370 ha         1 AYT       0.117000
     33 H5           3.9940     0.8160    -3.0070 ha         1 AYT       0.116000
     34 H6           4.3290     2.6170    -2.7820 ha         1 AYT       0.116000
     35 H7           2.4200     0.3680    -1.1100 ha         1 AYT       0.128000
     36 H8          -0.1540    -1.9210    -1.4460 hc         1 AYT       0.050700
     37 H9          -1.1770    -2.7060     1.9360 hc         1 AYT       0.040200
     38 H10         -1.0520    -3.2720     0.2850 hc         1 AYT       0.040200
     39 H11          1.2500    -2.4860     2.1340 hc         1 AYT       0.041200
     40 H12          0.8490    -4.0910     1.5770 hc         1 AYT       0.041200
     41 H13          7.3500     2.8830     0.7530 hc         1 AYT       0.055200
     42 H14          7.6190     2.1150    -0.8090 hc         1 AYT       0.055200
     43 H15          4.9280     2.5630     0.5610 hc         1 AYT       0.048700
     44 H16          5.5110     3.4090    -0.8630 hc         1 AYT       0.048700
     45 H17          8.4190    -0.3340     1.5710 ho         1 AYT       0.402000
     46 H18          1.4710    -3.5640    -0.7070 hc         1 AYT       0.045200
     47 H19          2.7880    -3.1040     0.3500 hc         1 AYT       0.045200
     48 H20         -2.3780    -1.6360    -0.6960 hc         1 AYT       0.046700
     49 H21         -2.2090     0.1480    -2.1380 hc         1 AYT       0.037200
     50 H22         -1.9000     1.3340    -0.9020 hc         1 AYT       0.037200
     51 H23          0.3960     1.0350    -1.0020 hc         1 AYT       0.046700
     52 H24          0.1190     0.2080    -2.5210 hc         1 AYT       0.046700
     53 H25         -4.1940     0.4290    -1.0480 hc         1 AYT       0.040200
     54 H26         -4.7240    -1.1620    -0.5710 hc         1 AYT       0.040200
     55 H27         -2.7170    -1.4420     2.5490 hc         1 AYT       0.042700
     56 H28         -4.4350    -1.1330     2.3530 hc         1 AYT       0.042700
     57 H29         -3.6490    -2.3610     1.3680 hc         1 AYT       0.042700
     58 H30         -6.0240    -0.1250     1.3330 hc         1 AYT       0.045700
     59 H31         -5.4250     1.4470     0.8500 hc         1 AYT       0.045700
     60 H32         -2.8240     1.5820     0.8130 ho         1 AYT       0.401000
     61 H33         -6.5160     1.1590    -1.3930 hc         1 AYT       0.035200
     62 H34         -7.0900    -0.4190    -0.9000 hc         1 AYT       0.035200
     63 H35         -8.4390     0.6270     0.9070 hc         1 AYT       0.044700
     64 H36         -7.5070     3.2660    -0.3220 hc         1 AYT       0.032033
     65 H37         -8.8090     3.1090     0.8560 hc         1 AYT       0.032033
     66 H38         -7.1600     2.7160     1.3160 hc         1 AYT       0.032033
     67 H39         -9.4450     0.1520    -1.3170 hc         1 AYT       0.032033
     68 H40        -10.1530     1.6090    -0.6230 hc         1 AYT       0.032033
     69 H41         -8.9400     1.7400    -1.8950 hc         1 AYT       0.032033
     70 H42         -0.7650    -0.2100     2.4290 hc         1 AYT       0.037700
     71 H43          0.8670    -0.3520     1.7870 hc         1 AYT       0.037700
     72 H44         -0.2250     0.8670     1.1590 hc         1 AYT       0.037700
     73 C8           4.3910     1.6100    -2.3870 c2         1 AYT      -0.210000
@<TRIPOS>BOND
     1     1     2 1   
     2     1     4 2   
     3     1    13 1   
     4     2     3 1   
     5     2    29 1   
     6     2    30 1   
     7     3    11 1   
     8     3    14 1   
     9     3    31 1   
    10     4     5 1   
    11     4    32 1   
    12     5     6 2   
    13     5    35 1   
    14     6     7 1   
    15     6    15 1   
    16     7     8 1   
    17     7    18 1   
    18     7    36 1   
    19     8     9 1   
    20     8    16 1   
    21     8    28 1   
    22     9    10 1   
    23     9    37 1   
    24     9    38 1   
    25    10    15 1   
    26    10    39 1   
    27    10    40 1   
    28    11    12 1   
    29    11    41 1   
    30    11    42 1   
    31    12    13 1   
    32    12    43 1   
    33    12    44 1   
    34    13    73 2   
    35    14    45 1   
    36    15    46 1   
    37    15    47 1   
    38    16    17 1   
    39    16    19 1   
    40    16    48 1   
    41    17    18 1   
    42    17    49 1   
    43    17    50 1   
    44    18    51 1   
    45    18    52 1   
    46    19    20 1   
    47    19    21 1   
    48    19    23 1   
    49    20    22 1   
    50    20    53 1   
    51    20    54 1   
    52    21    55 1   
    53    21    56 1   
    54    21    57 1   
    55    22    24 1   
    56    22    58 1   
    57    22    59 1   
    58    23    60 1   
    59    24    25 1   
    60    24    61 1   
    61    24    62 1   
    62    25    26 1   
    63    25    27 1   
    64    25    63 1   
    65    26    64 1   
    66    26    65 1   
    67    26    66 1   
    68    27    67 1   
    69    27    68 1   
    70    27    69 1   
    71    28    70 1   
    72    28    71 1   
    73    28    72 1   
    74    33    73 1   
    75    34    73 1   
@<TRIPOS>SUBSTRUCTURE
     1 AYT         1 TEMP              0 ****  ****    0 ROOT
