@<TRIPOS>MOLECULE
AYT
   73    75     1     0     0
SMALL
No Charge or Current Charge


@<TRIPOS>ATOM
      1 C4           5.2500    -0.0150    -0.5130 ce         1 AYT      -0.076200
      2 C5           6.6850    -0.3630    -0.0920 c6         1 AYT      -0.074200
      3 C6           7.3890     0.8580     0.5530 c6         1 AYT       0.173300
      4 C7           4.1970    -0.8060    -0.1520 cf         1 AYT      -0.164000
      5 C10          2.7910    -0.5560    -0.4780 cf         1 AYT      -0.189000
      6 C11          1.7310    -1.3900    -0.2780 c2         1 AYT      -0.079400
      7 C12          0.2840    -1.0360    -0.6660 c5         1 AYT      -0.038500
      8 C13         -0.6360    -1.1040     0.6040 c5         1 AYT      -0.027000
      9 C14         -0.5940    -2.5800     1.1300 c6         1 AYT      -0.063400
     10 C15          0.8520    -3.0490     1.4640 c6         1 AYT      -0.071400
     11 C1           7.3320     2.0850    -0.3910 c6         1 AYT      -0.070400
     12 C2           5.8740     2.4190    -0.7870 c6         1 AYT      -0.039200
     13 C3           5.1680     1.1880    -1.3620 ce         1 AYT      -0.078200
     14 O9           8.7510     0.5400     0.8570 oh         1 AYT      -0.659000
     15 C16          1.8420    -2.8100     0.2950 c6         1 AYT      -0.041200
     16 C17         -2.0050    -0.6760    -0.1460 c5         1 AYT      -0.082700
     17 C18         -1.5270     0.5440    -1.0300 c5         1 AYT      -0.076400
     18 C19          0.0230     0.4060    -1.1760 c5         1 AYT      -0.070400
     19 C20         -3.3870    -0.3970     0.6460 c3         1 AYT       0.202000
     20 C21         -4.5980    -0.0280    -0.3170 c3         1 AYT      -0.109400
     21 C22         -3.7710    -1.6020     1.5410 c3         1 AYT      -0.080100
     22 C23         -5.9510     0.3640     0.3390 c3         1 AYT      -0.070400
     23 O24         -3.1990     0.7180     1.5240 oh         1 AYT      -0.659000
     24 C25         -6.9970     0.8380    -0.6990 c3         1 AYT      -0.074400
     25 C26         -8.4090     1.1300    -0.1190 c3         1 AYT      -0.059700
     26 C27         -8.4090     2.2710     0.9260 c3         1 AYT      -0.087600
     27 C28         -9.4190     1.4260    -1.2510 c3         1 AYT      -0.087600
     28 C29         -0.1790    -0.1510     1.7910 c3         1 AYT      -0.075100
     29 H1           6.6880    -1.2060     0.6120 hc         1 AYT       0.052200
     30 H2           7.2470    -0.6950    -0.9760 hc         1 AYT       0.052200
     31 H3           6.8540     1.1140     1.4790 h1         1 AYT       0.031700
     32 H4           4.4280    -1.6790     0.4560 ha         1 AYT       0.167000
     33 H5           4.0960     0.3180    -2.9870 ha         1 AYT       0.166000
     34 H6           4.5430     2.1060    -3.1880 ha         1 AYT       0.166000
     35 H7           2.6050     0.4170    -0.9280 ha         1 AYT       0.178000
     36 H8          -0.0340    -1.7550    -1.4340 hc         1 AYT       0.050700
     37 H9          -1.2050    -2.7010     2.0300 hc         1 AYT       0.040200
     38 H10         -1.0230    -3.2530     0.3750 hc         1 AYT       0.040200
     39 H11          1.2160    -2.5340     2.3620 hc         1 AYT       0.041200
     40 H12          0.8400    -4.1170     1.7210 hc         1 AYT       0.041200
     41 H13          7.7940     2.9550     0.0940 hc         1 AYT       0.055200
     42 H14          7.9190     1.8820    -1.2980 hc         1 AYT       0.055200
     43 H15          5.3210     2.7760     0.0930 hc         1 AYT       0.048700
     44 H16          5.8700     3.2450    -1.5120 hc         1 AYT       0.048700
     45 H17          8.7290    -0.1900     1.5140 ho         1 AYT       0.441000
     46 H18          1.6200    -3.5250    -0.5090 hc         1 AYT       0.045200
     47 H19          2.8530    -3.0580     0.6320 hc         1 AYT       0.045200
     48 H20         -2.2740    -1.4910    -0.8290 hc         1 AYT       0.046700
     49 H21         -2.0190     0.5280    -2.0100 hc         1 AYT       0.037200
     50 H22         -1.7740     1.5110    -0.5790 hc         1 AYT       0.037200
     51 H23          0.5300     1.1640    -0.5700 hc         1 AYT       0.046700
     52 H24          0.3570     0.5450    -2.2100 hc         1 AYT       0.046700
     53 H25         -4.2880     0.8040    -0.9620 hc         1 AYT       0.040200
     54 H26         -4.7720    -0.8760    -0.9900 hc         1 AYT       0.040200
     55 H27         -3.0720    -1.7060     2.3750 hc         1 AYT       0.042700
     56 H28         -4.7590    -1.4820     1.9960 hc         1 AYT       0.042700
     57 H29         -3.7710    -2.5320     0.9600 hc         1 AYT       0.042700
     58 H30         -6.3700    -0.4930     0.8780 hc         1 AYT       0.045700
     59 H31         -5.7840     1.1600     1.0740 hc         1 AYT       0.045700
     60 H32         -3.4600     1.5180     1.0230 ho         1 AYT       0.440000
     61 H33         -6.6220     1.7370    -1.2040 hc         1 AYT       0.035200
     62 H34         -7.0900     0.0640    -1.4710 hc         1 AYT       0.035200
     63 H35         -8.7550     0.2200     0.3880 hc         1 AYT       0.044700
     64 H36         -8.0020     3.1940     0.4970 hc         1 AYT       0.032033
     65 H37         -9.4290     2.4770     1.2730 hc         1 AYT       0.032033
     66 H38         -7.8130     2.0050     1.8060 hc         1 AYT       0.032033
     67 H39         -9.4640     0.5910    -1.9610 hc         1 AYT       0.032033
     68 H40        -10.4270     1.5750    -0.8440 hc         1 AYT       0.032033
     69 H41         -9.1340     2.3310    -1.8020 hc         1 AYT       0.032033
     70 H42         -0.7630    -0.3490     2.6970 hc         1 AYT       0.037700
     71 H43          0.8780    -0.2750     2.0480 hc         1 AYT       0.037700
     72 H44         -0.3260     0.9080     1.5510 hc         1 AYT       0.037700
     73 C8           4.5710     1.2070    -2.5730 c2         1 AYT      -0.310000
@<TRIPOS>BOND
     1     1     2 1   
     2     1     4 2   
     3     1    13 1   
     4     2     3 1   
     5     2    29 1   
     6     2    30 1   
     7     3    11 1   
     8     3    14 1   
     9     3    31 1   
    10     4     5 1   
    11     4    32 1   
    12     5     6 2   
    13     5    35 1   
    14     6     7 1   
    15     6    15 1   
    16     7     8 1   
    17     7    18 1   
    18     7    36 1   
    19     8     9 1   
    20     8    16 1   
    21     8    28 1   
    22     9    10 1   
    23     9    37 1   
    24     9    38 1   
    25    10    15 1   
    26    10    39 1   
    27    10    40 1   
    28    11    12 1   
    29    11    41 1   
    30    11    42 1   
    31    12    13 1   
    32    12    43 1   
    33    12    44 1   
    34    13    73 2   
    35    14    45 1   
    36    15    46 1   
    37    15    47 1   
    38    16    17 1   
    39    16    19 1   
    40    16    48 1   
    41    17    18 1   
    42    17    49 1   
    43    17    50 1   
    44    18    51 1   
    45    18    52 1   
    46    19    20 1   
    47    19    21 1   
    48    19    23 1   
    49    20    22 1   
    50    20    53 1   
    51    20    54 1   
    52    21    55 1   
    53    21    56 1   
    54    21    57 1   
    55    22    24 1   
    56    22    58 1   
    57    22    59 1   
    58    23    60 1   
    59    24    25 1   
    60    24    61 1   
    61    24    62 1   
    62    25    26 1   
    63    25    27 1   
    64    25    63 1   
    65    26    64 1   
    66    26    65 1   
    67    26    66 1   
    68    27    67 1   
    69    27    68 1   
    70    27    69 1   
    71    28    70 1   
    72    28    71 1   
    73    28    72 1   
    74    33    73 1   
    75    34    73 1   
@<TRIPOS>SUBSTRUCTURE
     1 AYT         1 TEMP              0 ****  ****    0 ROOT
