@<TRIPOS>MOLECULE
AYU
   65    68     1     0     0
SMALL
No Charge or Current Charge


@<TRIPOS>ATOM
      1 N01         -5.2150     4.2750    -1.5810 nv         1 AYU      -1.077900
      2 C02         -5.0420     3.4970    -0.4790 ca         1 AYU       0.440900
      3 N03         -5.8890     3.7230     0.5360 nb         1 AYU      -0.323000
      4 C04         -5.7170     2.9490     1.6340 ca         1 AYU       0.159900
      5 N05         -4.7870     1.9790     1.8020 nb         1 AYU      -0.206000
      6 C06         -3.9540     1.7710     0.7620 ca         1 AYU       0.128500
      7 C07         -4.0420     2.5030    -0.3960 ca         1 AYU      -0.090600
      8 N08         -3.0900     2.1260    -1.3370 nc         1 AYU      -0.574100
      9 C09         -2.4300     1.1440    -0.6900 cd         1 AYU       0.448700
     10 N10         -2.9230     0.8790     0.6030 na         1 AYU      -0.278300
     11 C11         -2.4100    -0.0890     1.5720 c5         1 AYU       0.316300
     12 O12         -1.3630    -0.8930     0.9770 os         1 AYU      -0.412000
     13 C13         -1.8670    -2.2350     0.7590 c5         1 AYU       0.151300
     14 C14         -2.6410    -2.3360    -0.5970 c3         1 AYU       0.220600
     15 O15         -1.8200    -1.9440    -1.7140 os         1 AYU      -0.554400
     16 P16         -0.5230    -2.7870    -2.1740 p5         1 AYU       1.447800
     17 O17         -0.1930    -2.4210    -3.5820 o          1 AYU      -0.845000
     18 O18         -0.7860    -4.2450    -2.0060 o          1 AYU      -0.845000
     19 O19          0.4870    -2.1600    -1.1370 os         1 AYU      -0.687800
     20 P20          1.8480    -2.9560    -1.0720 p5         1 AYU       1.458800
     21 O21          1.7360    -4.2310    -0.3060 o          1 AYU      -0.838500
     22 O22          2.5530    -3.1220    -2.3750 o          1 AYU      -0.838500
     23 O23          2.6300    -1.8830    -0.1690 os         1 AYU      -0.552400
     24 C24          3.2550    -0.7500    -0.7770 c6         1 AYU       0.418300
     25 O25          3.8100     0.0160     0.3120 os         1 AYU      -0.475000
     26 C26          4.5790     1.1760    -0.0980 c6         1 AYU       0.155300
     27 C27          5.1940     1.7840     1.2070 c3         1 AYU       0.192300
     28 O28          4.1860     1.8390     2.2420 oh         1 AYU      -0.728000
     29 C29          6.4230     0.9640     1.7110 c3         1 AYU       0.113600
     30 O30          7.0820     1.6090     2.8230 oh         1 AYU      -0.677000
     31 C31          3.6500     2.1740    -0.8580 c6         1 AYU       0.144300
     32 O32          4.3700     3.3280    -1.3350 oh         1 AYU      -0.734000
     33 C33          2.9860     1.4460    -2.0650 c6         1 AYU       0.129300
     34 O34          2.0570     2.3190    -2.7280 oh         1 AYU      -0.666000
     35 C35          2.2570     0.1470    -1.6140 c6         1 AYU       0.122300
     36 O36          1.0530     0.4750    -0.8760 oh         1 AYU      -0.726000
     37 C37         -2.7550    -2.4810     2.0150 c5         1 AYU       0.103300
     38 O38         -1.9980    -2.7300     3.2030 oh         1 AYU      -0.707000
     39 C39         -3.4750    -1.1040     2.1470 c5         1 AYU       0.070300
     40 O40         -3.8490    -0.8580     3.5220 oh         1 AYU      -0.710000
     41 H1          -4.7350     3.9770    -2.4270 hn         1 AYU       0.499500
     42 H2          -6.1070     4.7470    -1.7010 hn         1 AYU       0.499500
     43 H3          -6.3970     3.1240     2.4660 h5         1 AYU       0.030100
     44 H4          -1.5940     0.5870    -1.0950 h5         1 AYU       0.097800
     45 H5          -1.9780     0.5070     2.3850 h2         1 AYU       0.101700
     46 H6          -1.0300    -2.9440     0.7410 h1         1 AYU       0.109700
     47 H7          -2.9940    -3.3670    -0.7260 h1         1 AYU       0.010700
     48 H8          -3.5320    -1.6970    -0.5610 h1         1 AYU       0.010700
     49 H11          4.0720    -1.0910    -1.4300 h2         1 AYU       0.038700
     50 H12          5.3940     0.8540    -0.7640 h1         1 AYU       0.039700
     51 H13          5.5530     2.7950     0.9710 h1         1 AYU       0.070700
     52 H14          3.6330     1.0380     2.0720 ho         1 AYU       0.526000
     53 H15          6.0870    -0.0440     1.9930 h1         1 AYU       0.056700
     54 H16          7.1280     0.8470     0.8760 h1         1 AYU       0.056700
     55 H17          7.7930     1.0040     3.1310 ho         1 AYU       0.435000
     56 H18          2.8520     2.4880    -0.1660 h1         1 AYU       0.079700
     57 H19          3.8050     3.6950    -2.0570 ho         1 AYU       0.503000
     58 H20          3.7820     1.1570    -2.7670 h1         1 AYU       0.031700
     59 H21          1.1930     2.1100    -2.3010 ho         1 AYU       0.433000
     60 H22          1.9860    -0.4010    -2.5280 h1         1 AYU       0.034700
     61 H23          0.6530    -0.4110    -0.6560 ho         1 AYU       0.539000
     62 H24         -3.4760    -3.2940     1.8460 h1         1 AYU       0.055700
     63 H25         -2.4460    -2.1380     3.8600 ho         1 AYU       0.499000
     64 H26         -4.3720    -1.0990     1.5100 h1         1 AYU       0.061700
     65 H27         -4.4670    -0.0860     3.5260 ho         1 AYU       0.501000
@<TRIPOS>BOND
     1     1     2 1   
     2     1    41 1   
     3     1    42 1   
     4     2     3 ar  
     5     2     7 ar  
     6     3     4 ar  
     7     4     5 ar  
     8     4    43 1   
     9     5     6 ar  
    10     6     7 ar  
    11     6    10 1   
    12     7     8 1   
    13     8     9 2   
    14     9    10 1   
    15     9    44 1   
    16    10    11 1   
    17    11    12 1   
    18    11    39 1   
    19    11    45 1   
    20    12    13 1   
    21    13    14 1   
    22    13    37 1   
    23    13    46 1   
    24    14    15 1   
    25    14    47 1   
    26    14    48 1   
    27    15    16 1   
    28    16    17 1   
    29    16    18 1   
    30    16    19 1   
    31    19    20 1   
    32    20    21 1   
    33    20    22 1   
    34    20    23 1   
    35    23    24 1   
    36    24    25 1   
    37    24    35 1   
    38    24    49 1   
    39    25    26 1   
    40    26    27 1   
    41    26    31 1   
    42    26    50 1   
    43    27    28 1   
    44    27    29 1   
    45    27    51 1   
    46    28    52 1   
    47    29    30 1   
    48    29    53 1   
    49    29    54 1   
    50    30    55 1   
    51    31    32 1   
    52    31    33 1   
    53    31    56 1   
    54    32    57 1   
    55    33    34 1   
    56    33    35 1   
    57    33    58 1   
    58    34    59 1   
    59    35    36 1   
    60    35    60 1   
    61    36    61 1   
    62    37    38 1   
    63    37    39 1   
    64    37    62 1   
    65    38    63 1   
    66    39    40 1   
    67    39    64 1   
    68    40    65 1   
@<TRIPOS>SUBSTRUCTURE
     1 AYU         1 TEMP              0 ****  ****    0 ROOT
