@<TRIPOS>MOLECULE
AYU
   65    68     1     0     0
SMALL
bcc


@<TRIPOS>ATOM
      1 N01         -6.2060     4.1360    -2.5010 nv         1 AYU      -0.967500
      2 C02         -6.3810     3.3610    -1.4310 ca         1 AYU       0.769200
      3 N03         -7.2290     3.7510    -0.4720 nb         1 AYU      -0.849000
      4 C04         -7.4000     2.9760     0.5960 ca         1 AYU       0.685900
      5 N05         -6.8310     1.8150     0.8680 nb         1 AYU      -0.732000
      6 C06         -5.9910     1.4410    -0.0940 ca         1 AYU       0.456800
      7 C07         -5.7080     2.1380    -1.2570 ca         1 AYU      -0.221200
      8 N08         -4.7870     1.4630    -2.0180 nc         1 AYU      -0.574100
      9 C09         -4.5270     0.3900    -1.3340 cd         1 AYU       0.448700
     10 N10         -5.2260     0.3110    -0.1590 na         1 AYU      -0.249000
     11 C11         -5.1460    -0.7290     0.8350 c5         1 AYU       0.263800
     12 O12         -3.8160    -0.8800     1.2420 os         1 AYU      -0.365600
     13 C13         -3.4850    -2.2660     1.3860 c5         1 AYU       0.128100
     14 C14         -2.4780    -2.6910     0.3360 c3         1 AYU       0.197400
     15 O15         -1.3400    -1.8640     0.4200 os         1 AYU      -0.531200
     16 P16          0.1210    -2.5960     0.1930 p5         1 AYU       1.447800
     17 O17          0.1790    -3.1790    -1.1840 o          1 AYU      -0.845000
     18 O18          0.4330    -3.4360     1.3900 o          1 AYU      -0.845000
     19 O19          0.9510    -1.1800     0.2540 os         1 AYU      -0.687800
     20 P20          2.4350    -0.9990    -0.4290 p5         1 AYU       1.458800
     21 O21          3.2490    -2.2250    -0.1820 o          1 AYU      -0.838500
     22 O22          2.3090    -0.4020    -1.7930 o          1 AYU      -0.838500
     23 O23          2.8750     0.2090     0.6320 os         1 AYU      -0.529200
     24 C24          3.8230     1.1290     0.2280 c6         1 AYU       0.371900
     25 O25          5.0500     0.4570     0.1360 os         1 AYU      -0.428600
     26 C26          6.1080     1.2620    -0.3290 c6         1 AYU       0.132100
     27 C27          7.3160     0.3460    -0.5090 c3         1 AYU       0.169100
     28 O28          7.7700    -0.1820     0.7160 oh         1 AYU      -0.605800
     29 C29          7.0010    -0.7470    -1.5230 c3         1 AYU       0.090400
     30 O30          8.1890    -1.4510    -1.8030 oh         1 AYU      -0.614800
     31 C31          6.3440     2.4190     0.6420 c6         1 AYU       0.121100
     32 O32          7.3450     3.2410     0.0910 oh         1 AYU      -0.611800
     33 C33          5.0370     3.1860     0.8270 c6         1 AYU       0.106100
     34 O34          5.2750     4.2180     1.7540 oh         1 AYU      -0.603800
     35 C35          3.9070     2.2530     1.2570 c6         1 AYU       0.099100
     36 O36          4.1780     1.7730     2.5470 oh         1 AYU      -0.603800
     37 C37         -4.8020    -3.0220     1.2690 c5         1 AYU       0.080100
     38 O38         -5.4020    -3.0790     2.5370 oh         1 AYU      -0.584800
     39 C39         -5.5880    -2.1030     0.3330 c5         1 AYU       0.047100
     40 O40         -6.9770    -2.2160     0.4170 oh         1 AYU      -0.587800
     41 H1          -5.5870     3.8660    -3.2450 hn         1 AYU       0.444300
     42 H2          -6.7100     5.0010    -2.5880 hn         1 AYU       0.444300
     43 H3          -8.0990     3.3510     1.3360 h5         1 AYU       0.030100
     44 H4          -3.8270    -0.3770    -1.6310 h5         1 AYU       0.097800
     45 H5          -5.7880    -0.4060     1.6620 h2         1 AYU       0.101700
     46 H6          -3.0430    -2.4120     2.3760 h1         1 AYU       0.109700
     47 H7          -2.2460    -3.7470     0.5200 h1         1 AYU       0.010700
     48 H8          -2.9100    -2.6330    -0.6710 h1         1 AYU       0.010700
     49 H11          3.5690     1.5630    -0.7530 h2         1 AYU       0.038700
     50 H12          5.8580     1.6900    -1.3150 h1         1 AYU       0.039700
     51 H13          8.1360     0.9510    -0.9040 h1         1 AYU       0.070700
     52 H14          7.0510    -0.6890     1.1090 ho         1 AYU       0.427000
     53 H15          6.2220    -1.4090    -1.1240 h1         1 AYU       0.056700
     54 H16          6.5880    -0.2770    -2.4260 h1         1 AYU       0.056700
     55 H17          7.9630    -2.2100    -2.3480 ho         1 AYU       0.396000
     56 H18          6.6560     2.0100     1.6130 h1         1 AYU       0.079700
     57 H19          7.4640     3.9940     0.6790 ho         1 AYU       0.404000
     58 H20          4.7540     3.6010    -0.1520 h1         1 AYU       0.031700
     59 H21          4.6000     4.8940     1.6430 ho         1 AYU       0.394000
     60 H22          2.9580     2.8110     1.2270 h1         1 AYU       0.034700
     61 H23          3.5120     1.1120     2.7660 ho         1 AYU       0.440000
     62 H24         -4.6640    -4.0230     0.8400 h1         1 AYU       0.055700
     63 H25         -6.3430    -3.2500     2.4130 ho         1 AYU       0.400000
     64 H26         -5.2330    -2.2540    -0.6950 h1         1 AYU       0.061700
     65 H27         -7.2650    -2.9330    -0.1560 ho         1 AYU       0.402000
@<TRIPOS>BOND
     1     1     2 1   
     2     1    41 1   
     3     1    42 1   
     4     2     3 ar  
     5     2     7 ar  
     6     3     4 ar  
     7     4     5 ar  
     8     4    43 1   
     9     5     6 ar  
    10     6     7 ar  
    11     6    10 1   
    12     7     8 1   
    13     8     9 2   
    14     9    10 1   
    15     9    44 1   
    16    10    11 1   
    17    11    12 1   
    18    11    39 1   
    19    11    45 1   
    20    12    13 1   
    21    13    14 1   
    22    13    37 1   
    23    13    46 1   
    24    14    15 1   
    25    14    47 1   
    26    14    48 1   
    27    15    16 1   
    28    16    17 1   
    29    16    18 1   
    30    16    19 1   
    31    19    20 1   
    32    20    21 1   
    33    20    22 1   
    34    20    23 1   
    35    23    24 1   
    36    24    25 1   
    37    24    35 1   
    38    24    49 1   
    39    25    26 1   
    40    26    27 1   
    41    26    31 1   
    42    26    50 1   
    43    27    28 1   
    44    27    29 1   
    45    27    51 1   
    46    28    52 1   
    47    29    30 1   
    48    29    53 1   
    49    29    54 1   
    50    30    55 1   
    51    31    32 1   
    52    31    33 1   
    53    31    56 1   
    54    32    57 1   
    55    33    34 1   
    56    33    35 1   
    57    33    58 1   
    58    34    59 1   
    59    35    36 1   
    60    35    60 1   
    61    36    61 1   
    62    37    38 1   
    63    37    39 1   
    64    37    62 1   
    65    38    63 1   
    66    39    40 1   
    67    39    64 1   
    68    40    65 1   
@<TRIPOS>SUBSTRUCTURE
     1 AYU         1 TEMP              0 ****  ****    0 ROOT
