@<TRIPOS>MOLECULE
AYV
   32    32     1     0     0
SMALL
No Charge or Current Charge


@<TRIPOS>ATOM
      1 N1           1.2040    -0.5520    -0.0370 ns         1 AYV      -0.518900
      2 C4           2.8910     1.3120    -0.1590 c3         1 AYV       0.148100
      3 C5           0.0420     0.0960     0.3280 c          1 AYV       0.668100
      4 C6          -2.4670    -0.2270    -0.1240 ca         1 AYV      -0.004000
      5 C7          -3.3540    -1.0850    -0.8030 ca         1 AYV      -0.149500
      6 C8          -4.7410    -0.8640    -0.7620 ca         1 AYV      -0.084500
      7 C10         -4.3830     1.0870     0.6420 ca         1 AYV      -0.084500
      8 C1           2.7870    -0.2790     1.8430 c3         1 AYV      -0.100100
      9 C2           2.5900    -0.1570     0.3050 c3         1 AYV       0.156400
     10 C3           3.5520    -1.1570    -0.4250 c3         1 AYV       0.148100
     11 O1           4.9410    -0.9110    -0.1290 oh         1 AYV      -0.661500
     12 O2           2.5770     1.5170    -1.5530 oh         1 AYV      -0.661500
     13 O3           0.0210     1.0840     1.0470 o          1 AYV      -0.627100
     14 N2          -1.0770    -0.5170    -0.2130 ns         1 AYV      -0.166000
     15 C9          -5.2560     0.2230    -0.0390 ca         1 AYV      -0.139000
     16 C11         -2.9950     0.8650     0.6010 ca         1 AYV      -0.149500
     17 H1           1.0880    -1.3510    -0.6470 hn         1 AYV       0.305500
     18 H2           2.3130     2.0130     0.4570 h1         1 AYV       0.035200
     19 H3           3.9500     1.5390     0.0250 h1         1 AYV       0.035200
     20 H4          -2.9670    -1.9320    -1.3670 ha         1 AYV       0.123500
     21 H5          -5.4160    -1.5340    -1.2910 ha         1 AYV       0.111000
     22 H6          -4.7820     1.9300     1.2020 ha         1 AYV       0.111000
     23 H7           2.5740    -1.3000     2.1820 hc         1 AYV       0.053367
     24 H8           3.8170    -0.0350     2.1290 hc         1 AYV       0.053367
     25 H9           2.1290     0.4040     2.3910 hc         1 AYV       0.053367
     26 H10          3.2870    -2.1800    -0.1240 h1         1 AYV       0.035200
     27 H11          3.3830    -1.0880    -1.5080 h1         1 AYV       0.035200
     28 H12          5.4650    -1.5700    -0.6370 ho         1 AYV       0.447500
     29 H13          2.7720     2.4580    -1.7560 ho         1 AYV       0.447500
     30 H14         -0.8710    -1.3270    -0.7820 hn         1 AYV       0.140000
     31 H15         -6.3300     0.3970    -0.0060 ha         1 AYV       0.114000
     32 H16         -2.3510     1.5530     1.1380 ha         1 AYV       0.123500
@<TRIPOS>BOND
     1     1     3 1   
     2     1     9 1   
     3     1    17 1   
     4     2     9 1   
     5     2    12 1   
     6     2    18 1   
     7     2    19 1   
     8     3    13 2   
     9     3    14 1   
    10     4     5 ar  
    11     4    14 1   
    12     4    16 ar  
    13     5     6 ar  
    14     5    20 1   
    15     6    15 ar  
    16     6    21 1   
    17     7    15 ar  
    18     7    16 ar  
    19     7    22 1   
    20     8     9 1   
    21     8    23 1   
    22     8    24 1   
    23     8    25 1   
    24     9    10 1   
    25    10    11 1   
    26    10    26 1   
    27    10    27 1   
    28    11    28 1   
    29    12    29 1   
    30    14    30 1   
    31    15    31 1   
    32    16    32 1   
@<TRIPOS>SUBSTRUCTURE
     1 AYV         1 TEMP              0 ****  ****    0 ROOT
