@<TRIPOS>MOLECULE
AYV
   32    32     1     0     0
SMALL
abcg2


@<TRIPOS>ATOM
      1 N1           1.2040    -0.5330    -0.1680 ns         1 AYV      -0.518900
      2 C4           2.8380     1.3190    -0.0150 c3         1 AYV       0.148100
      3 C5           0.0310     0.0090     0.2360 c          1 AYV       0.668100
      4 C6          -2.4000    -0.2120    -0.2270 ca         1 AYV      -0.004000
      5 C7          -3.3270    -1.1830    -0.6200 ca         1 AYV      -0.149500
      6 C8          -4.6860    -0.9710    -0.4660 ca         1 AYV      -0.084500
      7 C10         -4.2370     1.1780     0.4780 ca         1 AYV      -0.084500
      8 C1           2.6800    -0.3770     1.8060 c3         1 AYV      -0.100100
      9 C2           2.5310    -0.1460     0.3030 c3         1 AYV       0.156400
     10 C3           3.4810    -1.0860    -0.4570 c3         1 AYV       0.148100
     11 O1           4.8090    -0.7710    -0.1330 oh         1 AYV      -0.661500
     12 O2           2.6890     1.5400    -1.3970 oh         1 AYV      -0.661500
     13 O3          -0.0750     0.8400     1.1250 o          1 AYV      -0.627100
     14 N2          -1.0530    -0.4880    -0.4570 ns         1 AYV      -0.166000
     15 C9          -5.1550     0.2110     0.0920 ca         1 AYV      -0.139000
     16 C11         -2.8720     0.9840     0.3200 ca         1 AYV      -0.149500
     17 H1           1.1830    -1.1030    -0.9990 hn         1 AYV       0.305500
     18 H2           2.1640     1.9550     0.5680 h1         1 AYV       0.035200
     19 H3           3.8560     1.5390     0.3270 h1         1 AYV       0.035200
     20 H4          -2.9750    -2.1150    -1.0470 ha         1 AYV       0.123500
     21 H5          -5.3810    -1.7410    -0.7780 ha         1 AYV       0.111000
     22 H6          -4.5850     2.1100     0.9060 ha         1 AYV       0.111000
     23 H7           2.4370    -1.4100     2.0570 hc         1 AYV       0.053367
     24 H8           3.7050    -0.1860     2.1230 hc         1 AYV       0.053367
     25 H9           2.0260     0.2760     2.3800 hc         1 AYV       0.053367
     26 H10          3.2290    -2.1170    -0.1750 h1         1 AYV       0.035200
     27 H11          3.3000    -0.9940    -1.5360 h1         1 AYV       0.035200
     28 H12          5.3780    -1.4370    -0.5280 ho         1 AYV       0.447500
     29 H13          2.8900     2.4620    -1.5750 ho         1 AYV       0.447500
     30 H14         -0.8880    -1.2870    -1.0500 hn         1 AYV       0.140000
     31 H15         -6.2160     0.3780     0.2190 ha         1 AYV       0.114000
     32 H16         -2.1890     1.7640     0.6150 ha         1 AYV       0.123500
@<TRIPOS>BOND
     1     1     3 1   
     2     1     9 1   
     3     1    17 1   
     4     2     9 1   
     5     2    12 1   
     6     2    18 1   
     7     2    19 1   
     8     3    13 2   
     9     3    14 1   
    10     4     5 ar  
    11     4    14 1   
    12     4    16 ar  
    13     5     6 ar  
    14     5    20 1   
    15     6    15 ar  
    16     6    21 1   
    17     7    15 ar  
    18     7    16 ar  
    19     7    22 1   
    20     8     9 1   
    21     8    23 1   
    22     8    24 1   
    23     8    25 1   
    24     9    10 1   
    25    10    11 1   
    26    10    26 1   
    27    10    27 1   
    28    11    28 1   
    29    12    29 1   
    30    14    30 1   
    31    15    31 1   
    32    16    32 1   
@<TRIPOS>SUBSTRUCTURE
     1 AYV         1 TEMP              0 ****  ****    0 ROOT
