@<TRIPOS>MOLECULE
AYW
   20    21     1     0     0
SMALL
bcc


@<TRIPOS>ATOM
      1 CAA         -0.2740     2.7840    -0.0170 c3         1 AYW      -0.063800
      2 CAD          1.6290     1.1820     0.1680 ca         1 AYW      -0.229000
      3 CAE          1.3610    -1.2460     0.1770 ca         1 AYW      -0.285000
      4 CAF         -2.1910    -1.4360    -0.1480 c5         1 AYW       0.002400
      5 CAH         -1.9880     0.0720    -0.1440 c          1 AYW       0.580700
      6 CAI          2.1690    -0.1130     0.2360 ca         1 AYW       0.215100
      7 CAJ          0.2680     1.3880     0.0420 ca         1 AYW       0.082700
      8 CAK          0.0040    -1.0250     0.0480 ca         1 AYW       0.208100
      9 CAL         -0.5550     0.2530    -0.0190 ca         1 AYW      -0.319600
     10 OAC          3.4960    -0.2010     0.3610 oh         1 AYW      -0.484100
     11 OAG         -0.8960    -2.0160    -0.0210 os         1 AYW      -0.288900
     12 H1          -1.3530     2.8090    -0.1310 hc         1 AYW       0.058367
     13 H2          -0.0160     3.3280     0.8920 hc         1 AYW       0.058367
     14 H3           0.1700     3.3300    -0.8500 hc         1 AYW       0.058367
     15 H4           2.3030     2.0280     0.2200 ha         1 AYW       0.153000
     16 H5           1.7720    -2.2470     0.2300 ha         1 AYW       0.154000
     17 H6          -2.8190    -1.7550     0.6870 h1         1 AYW       0.089700
     18 H7          -2.6530    -1.7700    -1.0800 h1         1 AYW       0.089700
     19 H8           3.7780    -1.1230     0.4090 ho         1 AYW       0.434000
     20 OAB         -2.8880     0.8820    -0.2300 o          1 AYW      -0.513100
@<TRIPOS>BOND
     1     1     7 1   
     2     1    12 1   
     3     1    13 1   
     4     1    14 1   
     5     2     6 ar  
     6     2     7 ar  
     7     2    15 1   
     8     3     6 ar  
     9     3     8 ar  
    10     3    16 1   
    11     4     5 1   
    12     4    11 1   
    13     4    17 1   
    14     4    18 1   
    15     5     9 1   
    16     5    20 2   
    17     6    10 1   
    18     7     9 ar  
    19     8     9 ar  
    20     8    11 1   
    21    10    19 1   
@<TRIPOS>SUBSTRUCTURE
     1 AYW         1 TEMP              0 ****  ****    0 ROOT
