@<TRIPOS>MOLECULE
AYW
   20    21     1     0     0
SMALL
No Charge or Current Charge


@<TRIPOS>ATOM
      1 CAA         -0.3180     2.7740    -0.0530 c3         1 AYW      -0.063800
      2 CAD          1.6680     1.1890     0.0840 ca         1 AYW      -0.211000
      3 CAE          1.3920    -1.2340     0.1460 ca         1 AYW      -0.267000
      4 CAF         -2.2070    -1.4280    -0.0080 c5         1 AYW       0.025600
      5 CAH         -2.0020     0.1050    -0.0460 c          1 AYW       0.580700
      6 CAI          2.2220    -0.1030     0.1480 ca         1 AYW       0.215100
      7 CAJ          0.2710     1.3730     0.0160 ca         1 AYW       0.082700
      8 CAK          0.0100    -1.0440     0.0790 ca         1 AYW       0.208100
      9 CAL         -0.5360     0.2200     0.0160 ca         1 AYW      -0.319600
     10 OAC          3.5720    -0.2510     0.2130 oh         1 AYW      -0.523100
     11 OAG         -0.8910    -2.0780     0.0710 os         1 AYW      -0.312100
     12 H1          -0.9000     2.9100    -0.9710 hc         1 AYW       0.058367
     13 H2          -0.9790     2.9650     0.8000 hc         1 AYW       0.058367
     14 H3           0.4630     3.5440    -0.0420 hc         1 AYW       0.058367
     15 H4           2.3300     2.0510     0.0870 ha         1 AYW       0.135000
     16 H5           1.8010    -2.2390     0.1950 ha         1 AYW       0.136000
     17 H6          -2.8040    -1.6900     0.8740 h1         1 AYW       0.089700
     18 H7          -2.7240    -1.7450    -0.9210 h1         1 AYW       0.089700
     19 H8           3.7710    -1.2100     0.2510 ho         1 AYW       0.473000
     20 OAB         -2.8220     1.0130    -0.1100 o          1 AYW      -0.513100
@<TRIPOS>BOND
     1     1     7 1   
     2     1    12 1   
     3     1    13 1   
     4     1    14 1   
     5     2     6 ar  
     6     2     7 ar  
     7     2    15 1   
     8     3     6 ar  
     9     3     8 ar  
    10     3    16 1   
    11     4     5 1   
    12     4    11 1   
    13     4    17 1   
    14     4    18 1   
    15     5     9 1   
    16     5    20 2   
    17     6    10 1   
    18     7     9 ar  
    19     8     9 ar  
    20     8    11 1   
    21    10    19 1   
@<TRIPOS>SUBSTRUCTURE
     1 AYW         1 TEMP              0 ****  ****    0 ROOT
