@<TRIPOS>MOLECULE
AYX
   35    36     1     0     0
SMALL
bcc


@<TRIPOS>ATOM
      1 C1          -4.0920     0.1370    -0.0700 ca         1 AYX      -0.312500
      2 N1          -6.3580     0.7970     1.1130 n8         1 AYX      -0.893700
      3 O1          -6.4580     0.0030    -1.2320 o          1 AYX      -0.615300
      4 S1          -5.7920    -0.3100     0.0250 sy         1 AYX       1.275200
      5 C2          -3.1170    -0.7100     0.4320 ca         1 AYX       0.008500
      6 O2          -5.8670    -1.6810     0.5150 o          1 AYX      -0.615300
      7 C3          -1.7760    -0.3730     0.3370 ca         1 AYX      -0.198500
      8 C4          -1.4030     0.8290    -0.2700 ca         1 AYX       0.142600
      9 C5          -2.4030     1.6750    -0.7730 ca         1 AYX      -0.198500
     10 C6          -3.7340     1.3360    -0.6780 ca         1 AYX       0.008500
     11 N7          -0.0980     1.2730    -0.4120 ns         1 AYX      -0.485100
     12 C8           1.0630     0.6280    -0.0700 c          1 AYX       0.803100
     13 O8           1.1080    -0.5010     0.3770 o          1 AYX      -0.582100
     14 N9           2.1700     1.4020    -0.2970 ns         1 AYX      -0.490100
     15 C10          3.4960     1.0440    -0.0660 ca         1 AYX       0.076600
     16 C11          3.9440    -0.2740    -0.0440 ca         1 AYX      -0.088000
     17 C12          5.2940    -0.5120     0.1670 ca         1 AYX      -0.148200
     18 C13          6.2220     0.5000     0.3450 ca         1 AYX      -0.089000
     19 C14          5.7610     1.8060     0.3060 ca         1 AYX      -0.110000
     20 C15          4.4190     2.0790     0.1080 ca         1 AYX      -0.147000
     21 N16          5.7520    -1.8970     0.1910 no         1 AYX       0.310200
     22 O16          6.9270    -2.1010     0.3850 o          1 AYX      -0.201500
     23 O17          4.9380    -2.7720     0.0170 o          1 AYX      -0.201500
     24 H111         3.2640    -1.0950    -0.1930 ha         1 AYX       0.199000
     25 HN1         -7.3720     0.8570     1.0870 hn         1 AYX       0.416800
     26 H113         7.2690     0.2930     0.5080 ha         1 AYX       0.174000
     27 H114         6.4560     2.6230     0.4390 ha         1 AYX       0.148000
     28 H115         4.0800     3.1070     0.0890 ha         1 AYX       0.137000
     29 H2          -3.3870    -1.6430     0.9050 ha         1 AYX       0.158000
     30 H3          -1.0410    -1.0520     0.7330 ha         1 AYX       0.153500
     31 H5          -2.1280     2.6090    -1.2460 ha         1 AYX       0.153500
     32 H6          -4.4830     2.0080    -1.0750 ha         1 AYX       0.158000
     33 HN7         -0.0090     2.1770    -0.8530 hn         1 AYX       0.318500
     34 HN9          2.0260     2.3760    -0.5160 hn         1 AYX       0.319500
     35 HN1A        -6.0440     0.6110     2.0600 hn         1 AYX       0.416800
@<TRIPOS>BOND
     1     1     4 1   
     2     1     5 ar  
     3     1    10 ar  
     4     2     4 1   
     5     2    25 1   
     6     2    35 1   
     7     3     4 2   
     8     4     6 2   
     9     5     7 ar  
    10     5    29 1   
    11     7     8 ar  
    12     7    30 1   
    13     8     9 ar  
    14     8    11 1   
    15     9    10 ar  
    16     9    31 1   
    17    10    32 1   
    18    11    12 1   
    19    11    33 1   
    20    12    13 2   
    21    12    14 1   
    22    14    15 1   
    23    14    34 1   
    24    15    16 ar  
    25    15    20 ar  
    26    16    17 ar  
    27    16    24 1   
    28    17    18 ar  
    29    17    21 1   
    30    18    19 ar  
    31    18    26 1   
    32    19    20 ar  
    33    19    27 1   
    34    20    28 1   
    35    21    22 1   
    36    21    23 1   
@<TRIPOS>SUBSTRUCTURE
     1 AYX         1 TEMP              0 ****  ****    0 ROOT
