@<TRIPOS>MOLECULE
AYX
   35    36     1     0     0
SMALL
No Charge or Current Charge


@<TRIPOS>ATOM
      1 C1          -4.2860     0.3240    -0.2070 ca         1 AYX      -0.312500
      2 N1          -6.4380     0.4230     1.3420 n8         1 AYX      -1.004100
      3 O1          -6.7580     0.9380    -1.0440 o          1 AYX      -0.544500
      4 S1          -6.0450    -0.0070    -0.1850 sy         1 AYX       1.133600
      5 C2          -3.3640    -0.7010     0.0820 ca         1 AYX       0.026500
      6 O2          -6.2840    -1.4480    -0.2140 o          1 AYX      -0.544500
      7 C3          -1.9850    -0.4330     0.0620 ca         1 AYX      -0.180500
      8 C4          -1.5070     0.8600    -0.2460 ca         1 AYX       0.050000
      9 C5          -2.4380     1.8740    -0.5350 ca         1 AYX      -0.180500
     10 C6          -3.8190     1.6150    -0.5180 ca         1 AYX       0.026500
     11 N7          -0.1290     1.2050    -0.2870 ns         1 AYX      -0.159000
     12 C8           1.0250     0.4780    -0.0350 c          1 AYX       0.669100
     13 O8           1.0410    -0.6990     0.3030 o          1 AYX      -0.582100
     14 N9           2.1630     1.2530    -0.2130 ns         1 AYX      -0.164000
     15 C10          3.5520     0.9680    -0.0800 ca         1 AYX      -0.016000
     16 C11          4.0630    -0.3000     0.2850 ca         1 AYX      -0.070000
     17 C12          5.4600    -0.5110     0.3980 ca         1 AYX      -0.148200
     18 C13          6.3420     0.5640     0.1410 ca         1 AYX      -0.071000
     19 C14          5.8360     1.8210    -0.2220 ca         1 AYX      -0.092000
     20 C15          4.4510     2.0200    -0.3310 ca         1 AYX      -0.129000
     21 N16          5.9990    -1.8580     0.7860 no         1 AYX       0.690200
     22 O16          7.2270    -1.9960     0.8720 o          1 AYX      -0.391500
     23 O17          5.1920    -2.7730     1.0020 o          1 AYX      -0.391500
     24 H111         3.3880    -1.1270     0.4820 ha         1 AYX       0.181000
     25 HN1         -6.9180    -0.4160     1.6600 hn         1 AYX       0.472000
     26 H113         7.4210     0.4340     0.2190 ha         1 AYX       0.156000
     27 H114         6.5200     2.6440    -0.4190 ha         1 AYX       0.130000
     28 H115         4.0760     3.0020    -0.6130 ha         1 AYX       0.119000
     29 H2          -3.7070    -1.7070     0.3210 ha         1 AYX       0.140000
     30 H3          -1.3060    -1.2480     0.2880 ha         1 AYX       0.135500
     31 H5          -2.0920     2.8770    -0.7760 ha         1 AYX       0.135500
     32 H6          -4.5190     2.4190    -0.7430 ha         1 AYX       0.140000
     33 HN7          0.0370     2.1670    -0.5520 hn         1 AYX       0.152000
     34 HN9          1.9720     2.2070    -0.4920 hn         1 AYX       0.153000
     35 HN1A        -5.5380     0.3820     1.8140 hn         1 AYX       0.472000
@<TRIPOS>BOND
     1     1     4 1   
     2     1     5 ar  
     3     1    10 ar  
     4     2     4 1   
     5     2    25 1   
     6     2    35 1   
     7     3     4 2   
     8     4     6 2   
     9     5     7 ar  
    10     5    29 1   
    11     7     8 ar  
    12     7    30 1   
    13     8     9 ar  
    14     8    11 1   
    15     9    10 ar  
    16     9    31 1   
    17    10    32 1   
    18    11    12 1   
    19    11    33 1   
    20    12    13 2   
    21    12    14 1   
    22    14    15 1   
    23    14    34 1   
    24    15    16 ar  
    25    15    20 ar  
    26    16    17 ar  
    27    16    24 1   
    28    17    18 ar  
    29    17    21 1   
    30    18    19 ar  
    31    18    26 1   
    32    19    20 ar  
    33    19    27 1   
    34    20    28 1   
    35    21    22 1   
    36    21    23 1   
@<TRIPOS>SUBSTRUCTURE
     1 AYX         1 TEMP              0 ****  ****    0 ROOT
