@<TRIPOS>MOLECULE
AYZ
   42    44     1     0     0
SMALL
No Charge or Current Charge


@<TRIPOS>ATOM
      1 C1           3.0500     2.3600    -1.2950 ca         1 AYZ      -0.056000
      2 C2           3.8900     1.2270    -1.2320 ca         1 AYZ      -0.139000
      3 C3           3.4590     0.0330    -0.6040 ca         1 AYZ       0.090100
      4 C8          -0.3950     2.6270     0.0670 cc         1 AYZ      -0.102300
      5 C9           0.6930     3.1970    -0.6050 cd         1 AYZ      -0.230200
      6 C10         -1.6940     3.2890     0.3690 c          1 AYZ       0.630300
      7 C13         -0.7390     0.3380     0.9150 ca         1 AYZ      -0.018200
      8 C15          4.0670    -2.3090     0.0070 c3         1 AYZ       0.512000
      9 C19         -0.5200    -0.1010     2.2340 ca         1 AYZ      -0.122000
     10 C20         -1.3240    -1.1140     2.7820 ca         1 AYZ      -0.108000
     11 C21         -2.3470    -1.6930     2.0120 ca         1 AYZ      -0.103000
     12 C22         -2.5700    -1.2660     0.6890 ca         1 AYZ      -0.029300
     13 C24         -3.6780    -1.8940    -0.1480 c3         1 AYZ      -0.024100
     14 O28         -6.7740    -2.6100    -0.4150 o          1 AYZ      -0.738000
     15 C4           2.1630    -0.0330    -0.0250 ca         1 AYZ      -0.091000
     16 C5           1.7830     2.2550    -0.7140 ca         1 AYZ      -0.099800
     17 C6           1.3560     1.1110    -0.1030 ca         1 AYZ      -0.032200
     18 N7           0.0710     1.3290     0.3670 na         1 AYZ       0.055500
     19 N11         -1.8320     4.5590    -0.0750 nt         1 AYZ      -0.604000
     20 O12         -2.6130     2.7690     0.9790 o          1 AYZ      -0.565100
     21 O14          4.3490    -1.0270    -0.5910 os         1 AYZ      -0.402100
     22 F16          3.0050    -2.9170    -0.5710 f          1 AYZ      -0.113667
     23 F17          5.1210    -3.1420    -0.1330 f          1 AYZ      -0.113667
     24 F18          3.8190    -2.2090     1.3340 f          1 AYZ      -0.113667
     25 C23         -1.7610    -0.2490     0.1450 ca         1 AYZ      -0.106000
     26 C25         -4.9920    -1.0800    -0.0870 c3         1 AYZ      -0.205400
     27 C26         -6.0720    -1.7610    -0.9420 c          1 AYZ       0.717000
     28 O27         -6.1450    -1.4610    -2.1240 o          1 AYZ      -0.738000
     29 H1           3.3750     3.2790    -1.7780 ha         1 AYZ       0.116000
     30 H2           4.8830     1.2720    -1.6730 ha         1 AYZ       0.124000
     31 H3           0.7260     4.2100    -0.9990 ha         1 AYZ       0.202000
     32 H4           0.2730     0.3430     2.8320 ha         1 AYZ       0.114000
     33 H5          -1.1550    -1.4500     3.8030 ha         1 AYZ       0.107000
     34 H6          -2.9680    -2.4750     2.4440 ha         1 AYZ       0.121000
     35 H7          -3.3530    -1.9770    -1.1930 hc         1 AYZ       0.053700
     36 H8          -3.8710    -2.9190     0.1920 hc         1 AYZ       0.053700
     37 H9           1.7860    -0.9240     0.4660 ha         1 AYZ       0.149000
     38 H10         -1.0830     5.0040    -0.5810 hn         1 AYZ       0.318500
     39 H11         -2.6940     5.0510     0.1060 hn         1 AYZ       0.318500
     40 H12         -1.9270     0.0860    -0.8760 ha         1 AYZ       0.122000
     41 H13         -5.2880    -1.0690     0.9700 hc         1 AYZ       0.024700
     42 H14         -4.7510    -0.0880    -0.4890 hc         1 AYZ       0.024700
@<TRIPOS>BOND
     1     1     2 ar  
     2     1    16 ar  
     3     1    29 1   
     4     2     3 ar  
     5     2    30 1   
     6     3    15 ar  
     7     3    21 1   
     8     4     5 2   
     9     4     6 1   
    10     4    18 1   
    11     5    16 1   
    12     5    31 1   
    13     6    19 1   
    14     6    20 2   
    15     7     9 ar  
    16     7    18 1   
    17     7    25 ar  
    18     8    21 1   
    19     8    22 1   
    20     8    23 1   
    21     8    24 1   
    22     9    10 ar  
    23     9    32 1   
    24    10    11 ar  
    25    10    33 1   
    26    11    12 ar  
    27    11    34 1   
    28    12    13 1   
    29    12    25 ar  
    30    13    26 1   
    31    13    35 1   
    32    13    36 1   
    33    14    27 1   
    34    15    17 ar  
    35    15    37 1   
    36    16    17 ar  
    37    17    18 1   
    38    19    38 1   
    39    19    39 1   
    40    25    40 1   
    41    26    27 1   
    42    26    41 1   
    43    26    42 1   
    44    27    28 1   
@<TRIPOS>SUBSTRUCTURE
     1 AYZ         1 TEMP              0 ****  ****    0 ROOT
