@<TRIPOS>MOLECULE
AYZ
   42    44     1     0     0
SMALL
bcc


@<TRIPOS>ATOM
      1 C1           3.1680     2.1600    -1.1120 ca         1 AYZ      -0.074000
      2 C2           3.9440     1.0240    -1.0400 ca         1 AYZ      -0.157000
      3 C3           3.4030    -0.1560    -0.5140 ca         1 AYZ       0.090100
      4 C8          -0.2880     2.4230    -0.0420 cc         1 AYZ      -0.102300
      5 C9           0.7860     3.0580    -0.5970 cd         1 AYZ      -0.180200
      6 C10         -1.5930     3.0070     0.3540 c          1 AYZ       0.697300
      7 C13         -0.8280     0.1000     0.7180 ca         1 AYZ      -0.018200
      8 C15          4.9380    -1.5560     0.5610 c3         1 AYZ       0.852700
      9 C19         -0.5470    -0.5710     1.8980 ca         1 AYZ      -0.140000
     10 C20         -1.3890    -1.5990     2.3020 ca         1 AYZ      -0.126000
     11 C21         -2.5010    -1.9330     1.5440 ca         1 AYZ      -0.121000
     12 C22         -2.7920    -1.2570     0.3600 ca         1 AYZ      -0.029300
     13 C24         -4.0280    -1.5830    -0.4280 c3         1 AYZ      -0.024100
     14 O28         -6.5800    -2.0310    -1.4700 o          1 AYZ      -0.843300
     15 C4           2.1110    -0.2530    -0.0490 ca         1 AYZ      -0.109000
     16 C5           1.8490     2.1130    -0.6480 ca         1 AYZ      -0.099800
     17 C6           1.3470     0.9110    -0.1090 ca         1 AYZ      -0.032200
     18 N7           0.0470     1.1220     0.2700 na         1 AYZ       0.055500
     19 N11         -2.0260     3.9870    -0.4520 nt         1 AYZ      -0.671000
     20 O12         -2.1840     2.6310     1.3540 o          1 AYZ      -0.565100
     21 O14          4.1940    -1.3030    -0.5220 os         1 AYZ      -0.378900
     22 F16          4.2070    -1.7230     1.6650 f          1 AYZ      -0.234967
     23 F17          5.6100    -2.6730     0.3350 f          1 AYZ      -0.234967
     24 F18          5.8150    -0.5850     0.8260 f          1 AYZ      -0.234967
     25 C23         -1.9310    -0.2450    -0.0500 ca         1 AYZ      -0.124000
     26 C25         -5.2500    -0.8600     0.1330 c3         1 AYZ      -0.205400
     27 C26         -6.5760    -1.1440    -0.5950 c          1 AYZ       0.927600
     28 O27         -7.5530    -0.4560    -0.2330 o          1 AYZ      -0.843300
     29 H1           3.5740     3.0720    -1.5290 ha         1 AYZ       0.134000
     30 H2           4.9620     1.0320    -1.4060 ha         1 AYZ       0.142000
     31 H3           0.8300     4.0950    -0.8930 ha         1 AYZ       0.152000
     32 H4           0.3090    -0.2910     2.4980 ha         1 AYZ       0.132000
     33 H5          -1.1770    -2.1340     3.2190 ha         1 AYZ       0.125000
     34 H6          -3.1530    -2.7330     1.8770 ha         1 AYZ       0.139000
     35 H7          -3.8820    -1.3040    -1.4740 hc         1 AYZ       0.053700
     36 H8          -4.2020    -2.6600    -0.4130 hc         1 AYZ       0.053700
     37 H9           1.7160    -1.1860     0.3300 ha         1 AYZ       0.167000
     38 H10         -1.5640     4.2150    -1.3150 hn         1 AYZ       0.318500
     39 H11         -2.8730     4.4840    -0.2300 hn         1 AYZ       0.318500
     40 H12         -2.1230     0.2780    -0.9810 ha         1 AYZ       0.140000
     41 H13         -5.3780    -1.1260     1.1890 hc         1 AYZ       0.024700
     42 H14         -5.0710     0.2210     0.1310 hc         1 AYZ       0.024700
@<TRIPOS>BOND
     1     1     2 ar  
     2     1    16 ar  
     3     1    29 1   
     4     2     3 ar  
     5     2    30 1   
     6     3    15 ar  
     7     3    21 1   
     8     4     5 2   
     9     4     6 1   
    10     4    18 1   
    11     5    16 1   
    12     5    31 1   
    13     6    19 1   
    14     6    20 2   
    15     7     9 ar  
    16     7    18 1   
    17     7    25 ar  
    18     8    21 1   
    19     8    22 1   
    20     8    23 1   
    21     8    24 1   
    22     9    10 ar  
    23     9    32 1   
    24    10    11 ar  
    25    10    33 1   
    26    11    12 ar  
    27    11    34 1   
    28    12    13 1   
    29    12    25 ar  
    30    13    26 1   
    31    13    35 1   
    32    13    36 1   
    33    14    27 1   
    34    15    17 ar  
    35    15    37 1   
    36    16    17 ar  
    37    17    18 1   
    38    19    38 1   
    39    19    39 1   
    40    25    40 1   
    41    26    27 1   
    42    26    41 1   
    43    26    42 1   
    44    27    28 1   
@<TRIPOS>SUBSTRUCTURE
     1 AYZ         1 TEMP              0 ****  ****    0 ROOT
