@<TRIPOS>MOLECULE
AZ0
   90    90     1     0     0
SMALL
abcg2


@<TRIPOS>ATOM
      1 C11        -16.4250    10.6760   -51.0780 c          1 AZ0       0.640100
      2 O11        -17.0310    10.9230   -50.0560 o          1 AZ0      -0.544000
      3 O2         -16.8400     9.8150   -52.0110 os         1 AZ0      -0.454100
      4 C2         -18.0660     9.1190   -51.7560 c3         1 AZ0       0.231900
      5 C3         -18.3430     8.2690   -52.9570 ca         1 AZ0      -0.102300
      6 C4         -19.1210     8.7580   -54.0020 ca         1 AZ0      -0.083500
      7 C5         -19.3600     7.9820   -55.1280 ca         1 AZ0      -0.116500
      8 C6         -18.8190     6.7070   -55.2190 ca         1 AZ0      -0.098000
      9 C7         -18.0410     6.2100   -54.1810 ca         1 AZ0      -0.116500
     10 C8         -17.8050     6.9890   -53.0560 ca         1 AZ0      -0.083500
     11 N          -15.2380    11.2210   -51.4090 ns         1 AZ0      -0.481900
     12 CA         -14.6620    12.2550   -50.5960 c3         1 AZ0       0.054700
     13 C          -15.5020    13.5310   -50.6310 c          1 AZ0       0.585100
     14 O          -16.1220    13.8690   -51.6240 o          1 AZ0      -0.598100
     15 CB         -13.2610    12.6170   -51.1020 c3         1 AZ0      -0.091400
     16 CG         -12.2310    11.4870   -51.0650 c3         1 AZ0      -0.056700
     17 CD1        -10.9050    12.0100   -51.6070 c3         1 AZ0      -0.092100
     18 CD2        -12.0530    10.9130   -49.6640 c3         1 AZ0      -0.092100
     19 N1         -15.4320    14.2680   -49.5030 ns         1 AZ0      -0.490900
     20 CA1        -15.8150    15.6640   -49.4530 c3         1 AZ0       0.039700
     21 C1         -14.6010    16.4790   -49.8930 c          1 AZ0       0.575100
     22 O1         -13.5780    16.5190   -49.2410 o          1 AZ0      -0.574100
     23 CB1        -16.2540    16.0620   -48.0490 c3         1 AZ0      -0.077400
     24 CG1        -16.6150    17.5410   -47.8870 c3         1 AZ0      -0.063700
     25 CD11       -17.7420    17.9720   -48.8210 c3         1 AZ0      -0.089600
     26 CD21       -16.9920    17.8150   -46.4350 c3         1 AZ0      -0.089600
     27 CAD        -15.0320    21.5920   -48.9590 c          1 AZ0       0.617100
     28 OAC        -14.6250    22.4710   -48.0560 os         1 AZ0      -0.451100
     29 CAB        -13.2490    22.7530   -47.7490 c3         1 AZ0       0.189600
     30 CAA        -13.1980    24.1100   -47.0900 c3         1 AZ0      -0.101100
     31 CAF        -13.9820    20.7530   -49.6830 c3         1 AZ0       0.074300
     32 OAJ        -13.3520    19.9670   -48.6970 oh         1 AZ0      -0.648000
     33 CAG        -14.6180    19.8850   -50.7610 c3         1 AZ0      -0.167400
     34 CAH        -13.5380    19.1160   -51.4930 c          1 AZ0       0.622100
     35 OAI        -12.5690    19.6940   -51.9530 o          1 AZ0      -0.606100
     36 NAK        -13.6970    17.7720   -51.6510 n          1 AZ0      -0.270400
     37 NAL        -14.7510    17.1210   -51.0760 ns         1 AZ0      -0.372500
     38 CAN        -12.7480    16.9370   -52.3750 c3         1 AZ0       0.096000
     39 CAO        -13.3390    16.2880   -53.6250 c3         1 AZ0      -0.085700
     40 CAP        -13.8510    17.3260   -54.6160 c3         1 AZ0      -0.086600
     41 CAM        -12.2760    15.3960   -54.2570 c3         1 AZ0      -0.086600
     42 H21        -17.9660     8.5040   -50.8590 h1         1 AZ0       0.056700
     43 H22        -18.8770     9.8320   -51.5910 h1         1 AZ0       0.056700
     44 H41        -19.5490     9.7520   -53.9310 ha         1 AZ0       0.115500
     45 H51        -19.9710     8.3720   -55.9320 ha         1 AZ0       0.114500
     46 H61        -19.0060     6.0990   -56.0950 ha         1 AZ0       0.113000
     47 H71        -17.6190     5.2160   -54.2460 ha         1 AZ0       0.114500
     48 H81        -17.2020     6.5960   -52.2460 ha         1 AZ0       0.115500
     49 H          -14.8660    11.0580   -52.3320 hn         1 AZ0       0.336500
     50 HA         -14.5880    11.9020   -49.5640 h1         1 AZ0       0.081700
     51 HB2        -13.3460    12.9990   -52.1250 hc         1 AZ0       0.057200
     52 HB3        -12.8900    13.4490   -50.4940 hc         1 AZ0       0.057200
     53 HG         -12.5680    10.6800   -51.7250 hc         1 AZ0       0.050700
     54 HD11       -11.0160    12.4210   -52.6120 hc         1 AZ0       0.036700
     55 HD12       -10.5090    12.8030   -50.9670 hc         1 AZ0       0.036700
     56 HD13       -10.1560    11.2180   -51.6530 hc         1 AZ0       0.036700
     57 HD21       -11.7800    11.6970   -48.9540 hc         1 AZ0       0.036700
     58 HD22       -12.9590    10.4300   -49.2950 hc         1 AZ0       0.036700
     59 HD23       -11.2610    10.1630   -49.6520 hc         1 AZ0       0.036700
     60 H1         -14.8450    13.9350   -48.7520 hn         1 AZ0       0.323500
     61 HA1        -16.6440    15.8000   -50.1490 h1         1 AZ0       0.090700
     62 HB21       -17.1200    15.4490   -47.7810 hc         1 AZ0       0.058200
     63 HB31       -15.4590    15.8090   -47.3420 hc         1 AZ0       0.058200
     64 HG1        -15.7290    18.1450   -48.1130 hc         1 AZ0       0.062700
     65 HD14       -18.6340    17.3610   -48.6620 hc         1 AZ0       0.035700
     66 HD15       -18.0160    19.0120   -48.6390 hc         1 AZ0       0.035700
     67 HD16       -17.4700    17.8950   -49.8750 hc         1 AZ0       0.035700
     68 HD24       -16.1870    17.5370   -45.7540 hc         1 AZ0       0.035700
     69 HD25       -17.2100    18.8730   -46.2800 hc         1 AZ0       0.035700
     70 HD26       -17.8810    17.2480   -46.1490 hc         1 AZ0       0.035700
     71 HAB        -12.8650    21.9820   -47.0820 h1         1 AZ0       0.041200
     72 HABA       -12.6420    22.7560   -48.6560 h1         1 AZ0       0.041200
     73 HAA        -12.1650    24.3390   -46.8270 hc         1 AZ0       0.051033
     74 HAAA       -13.5560    24.8940   -47.7570 hc         1 AZ0       0.051033
     75 HAAB       -13.7880    24.1330   -46.1730 hc         1 AZ0       0.051033
     76 HAF        -13.2720    21.4350   -50.1640 h1         1 AZ0       0.065700
     77 HOAJ       -12.4130    19.9020   -48.8930 ho         1 AZ0       0.461000
     78 HAG        -15.3890    19.2520   -50.3310 hc         1 AZ0       0.087700
     79 HAGA       -15.1050    20.5230   -51.5040 hc         1 AZ0       0.087700
     80 HNAA       -15.5770    16.9850   -51.6410 hn         1 AZ0       0.345500
     81 HAN        -11.8980    17.5600   -52.6470 h1         1 AZ0       0.067200
     82 HANA       -12.3790    16.1650   -51.6960 h1         1 AZ0       0.067200
     83 HAO        -14.1770    15.6490   -53.3220 hc         1 AZ0       0.054700
     84 HAP        -14.6460    17.9400   -54.1920 hc         1 AZ0       0.035867
     85 HAPA       -13.0450    17.9930   -54.9320 hc         1 AZ0       0.035867
     86 HAPB       -14.2510    16.8430   -55.5080 hc         1 AZ0       0.035867
     87 HAM        -12.6750    14.8700   -55.1250 hc         1 AZ0       0.035867
     88 HAMA       -11.4190    15.9850   -54.5910 hc         1 AZ0       0.035867
     89 HAMB       -11.9100    14.6450   -53.5540 hc         1 AZ0       0.035867
     90 OAE        -16.2140    21.4860   -49.1630 o          1 AZ0      -0.440000
@<TRIPOS>BOND
     1     1     2 2   
     2     1     3 1   
     3     1    11 1   
     4     3     4 1   
     5     4     5 1   
     6     4    42 1   
     7     4    43 1   
     8     5     6 ar  
     9     5    10 ar  
    10     6     7 ar  
    11     6    44 1   
    12     7     8 ar  
    13     7    45 1   
    14     8     9 ar  
    15     8    46 1   
    16     9    10 ar  
    17     9    47 1   
    18    10    48 1   
    19    11    12 1   
    20    11    49 1   
    21    12    13 1   
    22    12    15 1   
    23    12    50 1   
    24    13    14 2   
    25    13    19 1   
    26    15    16 1   
    27    15    51 1   
    28    15    52 1   
    29    16    17 1   
    30    16    18 1   
    31    16    53 1   
    32    17    54 1   
    33    17    55 1   
    34    17    56 1   
    35    18    57 1   
    36    18    58 1   
    37    18    59 1   
    38    19    20 1   
    39    19    60 1   
    40    20    21 1   
    41    20    23 1   
    42    20    61 1   
    43    21    22 2   
    44    21    37 1   
    45    23    24 1   
    46    23    62 1   
    47    23    63 1   
    48    24    25 1   
    49    24    26 1   
    50    24    64 1   
    51    25    65 1   
    52    25    66 1   
    53    25    67 1   
    54    26    68 1   
    55    26    69 1   
    56    26    70 1   
    57    27    28 1   
    58    27    31 1   
    59    27    90 2   
    60    28    29 1   
    61    29    30 1   
    62    29    71 1   
    63    29    72 1   
    64    30    73 1   
    65    30    74 1   
    66    30    75 1   
    67    31    32 1   
    68    31    33 1   
    69    31    76 1   
    70    32    77 1   
    71    33    34 1   
    72    33    78 1   
    73    33    79 1   
    74    34    35 2   
    75    34    36 1   
    76    36    37 1   
    77    36    38 1   
    78    37    80 1   
    79    38    39 1   
    80    38    81 1   
    81    38    82 1   
    82    39    40 1   
    83    39    41 1   
    84    39    83 1   
    85    40    84 1   
    86    40    85 1   
    87    40    86 1   
    88    41    87 1   
    89    41    88 1   
    90    41    89 1   
@<TRIPOS>SUBSTRUCTURE
     1 AZ0         1 TEMP              0 ****  ****    0 ROOT
