@<TRIPOS>MOLECULE
AZ0
   90    90     1     0     0
SMALL
No Charge or Current Charge


@<TRIPOS>ATOM
      1 C11        -15.9490     9.9530   -50.5740 c          1 AZ0       0.640100
      2 O11        -15.3710     9.7070   -49.5280 o          1 AZ0      -0.544000
      3 O2         -16.8780     9.1630   -51.1750 os         1 AZ0      -0.454100
      4 C2         -17.2010     7.9170   -50.5380 c3         1 AZ0       0.231900
      5 C3         -18.2480     7.2030   -51.3820 ca         1 AZ0      -0.102300
      6 C4         -19.6200     7.4120   -51.1400 ca         1 AZ0      -0.083500
      7 C5         -20.5860     6.7520   -51.9190 ca         1 AZ0      -0.116500
      8 C6         -20.1870     5.8800   -52.9460 ca         1 AZ0      -0.098000
      9 C7         -18.8200     5.6690   -53.1940 ca         1 AZ0      -0.116500
     10 C8         -17.8530     6.3290   -52.4150 ca         1 AZ0      -0.083500
     11 N          -15.7880    11.0860   -51.3190 ns         1 AZ0      -0.481900
     12 CA         -14.8690    12.2010   -51.0020 c3         1 AZ0       0.054700
     13 C          -15.5680    13.5630   -51.2890 c          1 AZ0       0.585100
     14 O          -16.6000    13.6650   -51.9440 o          1 AZ0      -0.598100
     15 CB         -13.5400    12.0770   -51.8030 c3         1 AZ0      -0.091400
     16 CG         -12.6360    10.8630   -51.4450 c3         1 AZ0      -0.056700
     17 CD1        -11.4750    10.7250   -52.4560 c3         1 AZ0      -0.092100
     18 CD2        -12.0890    10.9340   -49.9990 c3         1 AZ0      -0.092100
     19 N1         -14.9390    14.6670   -50.7520 ns         1 AZ0      -0.490900
     20 CA1        -15.4100    16.0630   -50.8830 c3         1 AZ0       0.039700
     21 C1         -14.2000    17.0250   -50.7100 c          1 AZ0       0.575100
     22 O1         -13.2370    16.7500   -50.0020 o          1 AZ0      -0.574100
     23 CB1        -16.5380    16.3300   -49.8430 c3         1 AZ0      -0.077400
     24 CG1        -17.2130    17.7300   -49.8930 c3         1 AZ0      -0.063700
     25 CD11       -17.9160    18.0090   -51.2440 c3         1 AZ0      -0.089600
     26 CD21       -18.2050    17.9020   -48.7200 c3         1 AZ0      -0.089600
     27 CAD        -14.8980    21.8160   -48.0630 c          1 AZ0       0.617100
     28 OAC        -14.5240    22.1120   -46.7640 os         1 AZ0      -0.451100
     29 CAB        -13.3540    21.5250   -46.1630 c3         1 AZ0       0.189600
     30 CAA        -13.2680    22.0600   -44.7250 c3         1 AZ0      -0.101100
     31 CAF        -13.9430    20.8680   -48.8890 c3         1 AZ0       0.074300
     32 OAJ        -14.0620    19.4860   -48.4680 oh         1 AZ0      -0.648000
     33 CAG        -14.2110    20.9550   -50.4180 c3         1 AZ0      -0.167400
     34 CAH        -13.0420    20.3720   -51.2270 c          1 AZ0       0.622100
     35 OAI        -12.0890    21.0870   -51.5110 o          1 AZ0      -0.606100
     36 NAK        -13.0600    18.9900   -51.5780 n          1 AZ0      -0.270400
     37 NAL        -14.2890    18.2250   -51.4050 ns         1 AZ0      -0.372500
     38 CAN        -11.9950    18.4010   -52.4330 c3         1 AZ0       0.096000
     39 CAO        -12.4310    18.1250   -53.8960 c3         1 AZ0      -0.085700
     40 CAP        -12.8750    19.4110   -54.6330 c3         1 AZ0      -0.086600
     41 CAM        -11.3150    17.3950   -54.6770 c3         1 AZ0      -0.086600
     42 H21        -16.3080     7.2840   -50.4480 h1         1 AZ0       0.056700
     43 H22        -17.5960     8.0870   -49.5280 h1         1 AZ0       0.056700
     44 H41        -19.9380     8.0880   -50.3490 ha         1 AZ0       0.115500
     45 H51        -21.6440     6.9170   -51.7280 ha         1 AZ0       0.114500
     46 H61        -20.9350     5.3690   -53.5490 ha         1 AZ0       0.113000
     47 H71        -18.5090     4.9950   -53.9890 ha         1 AZ0       0.114500
     48 H81        -16.7960     6.1620   -52.6150 ha         1 AZ0       0.115500
     49 H          -16.3800    11.1610   -52.1370 hn         1 AZ0       0.336500
     50 HA         -14.6530    12.1920   -49.9260 h1         1 AZ0       0.081700
     51 HB2        -13.7900    12.0350   -52.8710 hc         1 AZ0       0.057200
     52 HB3        -12.9500    12.9920   -51.6680 hc         1 AZ0       0.057200
     53 HG         -13.2380     9.9500   -51.5290 hc         1 AZ0       0.050700
     54 HD11       -11.8600    10.6130   -53.4770 hc         1 AZ0       0.036700
     55 HD12       -10.8250    11.6080   -52.4290 hc         1 AZ0       0.036700
     56 HD13       -10.8650     9.8420   -52.2280 hc         1 AZ0       0.036700
     57 HD21       -11.4930    11.8430   -49.8510 hc         1 AZ0       0.036700
     58 HD22       -12.9000    10.9330   -49.2620 hc         1 AZ0       0.036700
     59 HD23       -11.4500    10.0690   -49.7860 hc         1 AZ0       0.036700
     60 H1         -14.0850    14.5020   -50.2280 hn         1 AZ0       0.323500
     61 HA1        -15.8020    16.1980   -51.8990 h1         1 AZ0       0.090700
     62 HB21       -17.3170    15.5680   -49.9650 hc         1 AZ0       0.058200
     63 HB31       -16.1190    16.1780   -48.8400 hc         1 AZ0       0.058200
     64 HG1        -16.4390    18.4930   -49.7540 hc         1 AZ0       0.062700
     65 HD14       -18.6900    17.2570   -51.4420 hc         1 AZ0       0.035700
     66 HD15       -18.3950    18.9960   -51.2320 hc         1 AZ0       0.035700
     67 HD16       -17.2060    17.9970   -52.0780 hc         1 AZ0       0.035700
     68 HD24       -17.6970    17.7630   -47.7580 hc         1 AZ0       0.035700
     69 HD25       -18.6430    18.9080   -48.7260 hc         1 AZ0       0.035700
     70 HD26       -19.0210    17.1720   -48.7870 hc         1 AZ0       0.035700
     71 HAB        -13.4270    20.4310   -46.1310 h1         1 AZ0       0.041200
     72 HABA       -12.4410    21.8100   -46.7020 h1         1 AZ0       0.041200
     73 HAA        -12.3900    21.6430   -44.2180 hc         1 AZ0       0.051033
     74 HAAA       -13.1790    23.1520   -44.7240 hc         1 AZ0       0.051033
     75 HAAB       -14.1610    21.7780   -44.1550 hc         1 AZ0       0.051033
     76 HAF        -12.9190    21.2280   -48.7240 h1         1 AZ0       0.065700
     77 HOAJ       -13.4500    18.9360   -49.0080 ho         1 AZ0       0.461000
     78 HAG        -15.1520    20.4390   -50.6280 hc         1 AZ0       0.087700
     79 HAGA       -14.3060    22.0130   -50.6920 hc         1 AZ0       0.087700
     80 HNAA       -15.0480    18.3660   -52.0650 hn         1 AZ0       0.345500
     81 HAN        -11.1130    19.0540   -52.4410 h1         1 AZ0       0.067200
     82 HANA       -11.6740    17.4560   -51.9780 h1         1 AZ0       0.067200
     83 HAO        -13.2930    17.4470   -53.8670 hc         1 AZ0       0.054700
     84 HAP        -13.7330    19.8760   -54.1330 hc         1 AZ0       0.035867
     85 HAPA       -12.0580    20.1430   -54.6660 hc         1 AZ0       0.035867
     86 HAPB       -13.1730    19.1840   -55.6630 hc         1 AZ0       0.035867
     87 HAM        -11.6470    17.1520   -55.6930 hc         1 AZ0       0.035867
     88 HAMA       -10.4160    18.0180   -54.7490 hc         1 AZ0       0.035867
     89 HAMB       -11.0430    16.4560   -54.1780 hc         1 AZ0       0.035867
     90 OAE        -15.9250    22.2880   -48.5330 o          1 AZ0      -0.440000
@<TRIPOS>BOND
     1     1     2 2   
     2     1     3 1   
     3     1    11 1   
     4     3     4 1   
     5     4     5 1   
     6     4    42 1   
     7     4    43 1   
     8     5     6 ar  
     9     5    10 ar  
    10     6     7 ar  
    11     6    44 1   
    12     7     8 ar  
    13     7    45 1   
    14     8     9 ar  
    15     8    46 1   
    16     9    10 ar  
    17     9    47 1   
    18    10    48 1   
    19    11    12 1   
    20    11    49 1   
    21    12    13 1   
    22    12    15 1   
    23    12    50 1   
    24    13    14 2   
    25    13    19 1   
    26    15    16 1   
    27    15    51 1   
    28    15    52 1   
    29    16    17 1   
    30    16    18 1   
    31    16    53 1   
    32    17    54 1   
    33    17    55 1   
    34    17    56 1   
    35    18    57 1   
    36    18    58 1   
    37    18    59 1   
    38    19    20 1   
    39    19    60 1   
    40    20    21 1   
    41    20    23 1   
    42    20    61 1   
    43    21    22 2   
    44    21    37 1   
    45    23    24 1   
    46    23    62 1   
    47    23    63 1   
    48    24    25 1   
    49    24    26 1   
    50    24    64 1   
    51    25    65 1   
    52    25    66 1   
    53    25    67 1   
    54    26    68 1   
    55    26    69 1   
    56    26    70 1   
    57    27    28 1   
    58    27    31 1   
    59    27    90 2   
    60    28    29 1   
    61    29    30 1   
    62    29    71 1   
    63    29    72 1   
    64    30    73 1   
    65    30    74 1   
    66    30    75 1   
    67    31    32 1   
    68    31    33 1   
    69    31    76 1   
    70    32    77 1   
    71    33    34 1   
    72    33    78 1   
    73    33    79 1   
    74    34    35 2   
    75    34    36 1   
    76    36    37 1   
    77    36    38 1   
    78    37    80 1   
    79    38    39 1   
    80    38    81 1   
    81    38    82 1   
    82    39    40 1   
    83    39    41 1   
    84    39    83 1   
    85    40    84 1   
    86    40    85 1   
    87    40    86 1   
    88    41    87 1   
    89    41    88 1   
    90    41    89 1   
@<TRIPOS>SUBSTRUCTURE
     1 AZ0         1 TEMP              0 ****  ****    0 ROOT
