@<TRIPOS>MOLECULE
AZ1
   27    26     1     0     0
SMALL
abcg2


@<TRIPOS>ATOM
      1 C1           0.1140     0.0520     5.1450 c          1 AZ1       0.715000
      2 C2          -0.6570     0.0570     3.8120 c3         1 AZ1      -0.200400
      3 C3           0.1890     0.0120     2.5500 c3         1 AZ1      -0.056400
      4 C4          -0.6480     0.0290     1.2760 c3         1 AZ1      -0.079400
      5 C5           0.1900     0.0040     0.0040 c3         1 AZ1      -0.075400
      6 C6          -0.6440     0.0170    -1.2710 c3         1 AZ1      -0.079400
      7 C7           0.1970     0.0140    -2.5430 c3         1 AZ1      -0.056400
      8 C8          -0.6460     0.0180    -3.8080 c3         1 AZ1      -0.200400
      9 C9           0.1290     0.0420    -5.1380 c          1 AZ1       0.715000
     10 O1          -0.5700     0.2460     6.1740 o          1 AZ1      -0.752500
     11 O2           1.3430    -0.1540     5.1080 o          1 AZ1      -0.752500
     12 O3           1.3570     0.2550    -5.0940 o          1 AZ1      -0.752500
     13 O4          -0.5500    -0.1390    -6.1710 o          1 AZ1      -0.752500
     14 H21         -1.3060     0.9400     3.7910 hc         1 AZ1       0.011700
     15 H22         -1.3460    -0.7970     3.8200 hc         1 AZ1       0.011700
     16 H31          0.8180    -0.8830     2.5560 hc         1 AZ1       0.035950
     17 H32          0.8790     0.8620     2.5370 hc         1 AZ1       0.035950
     18 H41         -1.2860     0.9200     1.2700 hc         1 AZ1       0.018450
     19 H42         -1.3310    -0.8290     1.2770 hc         1 AZ1       0.018450
     20 H51          0.8310    -0.8850     0.0090 hc         1 AZ1       0.030700
     21 H52          0.8690     0.8650     0.0010 hc         1 AZ1       0.030700
     22 H61         -1.2960     0.8980    -1.2680 hc         1 AZ1       0.018450
     23 H62         -1.3150    -0.8510    -1.2730 hc         1 AZ1       0.018450
     24 H71          0.8530    -0.8630    -2.5370 hc         1 AZ1       0.035950
     25 H72          0.8600     0.8830    -2.5370 hc         1 AZ1       0.035950
     26 H81         -1.3140     0.8880    -3.7950 hc         1 AZ1       0.011700
     27 H82         -1.3150    -0.8500    -3.8100 hc         1 AZ1       0.011700
@<TRIPOS>BOND
     1     1     2 1   
     2     1    10 1   
     3     1    11 1   
     4     2     3 1   
     5     2    14 1   
     6     2    15 1   
     7     3     4 1   
     8     3    16 1   
     9     3    17 1   
    10     4     5 1   
    11     4    18 1   
    12     4    19 1   
    13     5     6 1   
    14     5    20 1   
    15     5    21 1   
    16     6     7 1   
    17     6    22 1   
    18     6    23 1   
    19     7     8 1   
    20     7    24 1   
    21     7    25 1   
    22     8     9 1   
    23     8    26 1   
    24     8    27 1   
    25     9    12 1   
    26     9    13 1   
@<TRIPOS>SUBSTRUCTURE
     1 AZ1         1 TEMP              0 ****  ****    0 ROOT
