@<TRIPOS>MOLECULE
AZ1
   27    26     1     0     0
SMALL
No Charge or Current Charge


@<TRIPOS>ATOM
      1 C1           0.2000    -0.0470     5.1150 c          1 AZ1       0.715000
      2 C2          -0.7130    -0.0240     3.8740 c3         1 AZ1      -0.200400
      3 C3           0.1400    -0.0110     2.5810 c3         1 AZ1      -0.056400
      4 C4          -0.7100     0.0130     1.2910 c3         1 AZ1      -0.079400
      5 C5           0.1440     0.0260     0.0040 c3         1 AZ1      -0.075400
      6 C6          -0.7060     0.0490    -1.2860 c3         1 AZ1      -0.079400
      7 C7           0.1480     0.0620    -2.5740 c3         1 AZ1      -0.056400
      8 C8          -0.7020     0.0860    -3.8690 c3         1 AZ1      -0.200400
      9 C9           0.2150     0.0970    -5.1070 c          1 AZ1       0.715000
     10 O1           0.5670     1.0200     5.5820 o          1 AZ1      -0.752500
     11 O2           0.5540    -1.1320     5.5510 o          1 AZ1      -0.752500
     12 O3           0.5840     1.1780    -5.5430 o          1 AZ1      -0.752500
     13 O4           0.5700    -0.9740    -5.5730 o          1 AZ1      -0.752500
     14 H21         -1.3060     0.8990     3.8500 hc         1 AZ1       0.011700
     15 H22         -1.3180    -0.9380     3.8240 hc         1 AZ1       0.011700
     16 H31          0.7880    -0.8960     2.5690 hc         1 AZ1       0.035950
     17 H32          0.7990     0.8660     2.5940 hc         1 AZ1       0.035950
     18 H41         -1.3570     0.8990     1.3020 hc         1 AZ1       0.018450
     19 H42         -1.3680    -0.8650     1.2770 hc         1 AZ1       0.018450
     20 H51          0.7910    -0.8600    -0.0080 hc         1 AZ1       0.030700
     21 H52          0.8020     0.9030     0.0170 hc         1 AZ1       0.030700
     22 H61         -1.3530     0.9350    -1.2740 hc         1 AZ1       0.018450
     23 H62         -1.3640    -0.8280    -1.2990 hc         1 AZ1       0.018450
     24 H71          0.7960    -0.8230    -2.5850 hc         1 AZ1       0.035950
     25 H72          0.8070     0.9390    -2.5600 hc         1 AZ1       0.035950
     26 H81         -1.2950     1.0080    -3.8210 hc         1 AZ1       0.011700
     27 H82         -1.3070    -0.8290    -3.8470 hc         1 AZ1       0.011700
@<TRIPOS>BOND
     1     1     2 1   
     2     1    10 1   
     3     1    11 1   
     4     2     3 1   
     5     2    14 1   
     6     2    15 1   
     7     3     4 1   
     8     3    16 1   
     9     3    17 1   
    10     4     5 1   
    11     4    18 1   
    12     4    19 1   
    13     5     6 1   
    14     5    20 1   
    15     5    21 1   
    16     6     7 1   
    17     6    22 1   
    18     6    23 1   
    19     7     8 1   
    20     7    24 1   
    21     7    25 1   
    22     8     9 1   
    23     8    26 1   
    24     8    27 1   
    25     9    12 1   
    26     9    13 1   
@<TRIPOS>SUBSTRUCTURE
     1 AZ1         1 TEMP              0 ****  ****    0 ROOT
