@<TRIPOS>MOLECULE
AZ2
   51    52     1     0     0
SMALL
bcc


@<TRIPOS>ATOM
      1 C1           0.1690     1.0100    -4.3080 ca         1 AZ2      -0.070300
      2 C2          -0.4140     1.2540    -5.6700 c3         1 AZ2      -0.023100
      3 C5          -0.8900    -0.0350    -6.3480 c3         1 AZ2       0.012100
      4 O7           0.2390    -0.8410    -6.5520 os         1 AZ2      -0.416600
      5 C8          -0.0570    -2.1860    -6.8320 c3         1 AZ2       0.154400
      6 C11          1.2350    -2.9370    -7.0650 c3         1 AZ2      -0.087100
      7 C15         -1.6580     0.3140    -7.6460 c          1 AZ2       0.907600
      8 O16         -2.7950     0.7980    -7.4680 o          1 AZ2      -0.829300
      9 O18         -1.0860     0.1190    -8.7320 o          1 AZ2      -0.829300
     10 C19          1.5190     0.7070    -4.1270 ca         1 AZ2      -0.091500
     11 C21          2.0410     0.4570    -2.8700 ca         1 AZ2      -0.195000
     12 C23          1.2160     0.4940    -1.7450 ca         1 AZ2       0.106100
     13 C24         -0.1340     0.7900    -1.9050 ca         1 AZ2      -0.195000
     14 C26         -0.6360     1.0420    -3.1770 ca         1 AZ2      -0.091500
     15 O28          1.8060     0.2420    -0.5550 os         1 AZ2      -0.337900
     16 C29          1.0090     0.2870     0.6140 c3         1 AZ2       0.147400
     17 C32          1.9050     0.0040     1.8090 c3         1 AZ2      -0.040100
     18 C35          1.0960     0.0290     3.0760 ca         1 AZ2      -0.066300
     19 C36          0.5950    -1.1480     3.6270 ca         1 AZ2      -0.110000
     20 C38         -0.1910    -1.1310     4.7690 ca         1 AZ2      -0.128500
     21 C40         -0.4870     0.0860     5.3600 ca         1 AZ2       0.100100
     22 C41         -0.0070     1.2740     4.8340 ca         1 AZ2      -0.128500
     23 C43          0.7820     1.2370     3.6940 ca         1 AZ2      -0.110000
     24 O45         -1.3280     0.1310     6.4620 os         1 AZ2      -0.438800
     25 S46         -0.7230    -0.1530     7.9470 s6         1 AZ2       1.354500
     26 C47          0.0910     1.3690     8.3320 c3         1 AZ2      -0.270300
     27 O51         -1.9050    -0.3120     8.7610 o          1 AZ2      -0.596800
     28 O52          0.2540    -1.2180     7.8670 o          1 AZ2      -0.596800
     29 H21          0.3210     1.7420    -6.3180 hc         1 AZ2       0.060200
     30 H22         -1.2660     1.9310    -5.5910 hc         1 AZ2       0.060200
     31 H51         -1.5950    -0.5340    -5.6620 h1         1 AZ2       0.014700
     32 H81         -0.7020    -2.2730    -7.7150 h1         1 AZ2       0.017700
     33 H82         -0.6050    -2.6400    -5.9940 h1         1 AZ2       0.017700
     34 H111         1.0250    -3.9880    -7.2630 hc         1 AZ2       0.025367
     35 H112         1.7780    -2.5370    -7.9230 hc         1 AZ2       0.025367
     36 H113         1.8870    -2.8840    -6.1920 hc         1 AZ2       0.025367
     37 H191         2.1800     0.6730    -4.9840 ha         1 AZ2       0.138000
     38 H211         3.0940     0.2320    -2.7510 ha         1 AZ2       0.123500
     39 H241        -0.8090     0.8340    -1.0610 ha         1 AZ2       0.123500
     40 H261        -1.6900     1.2740    -3.2800 ha         1 AZ2       0.138000
     41 H291         0.5420     1.2720     0.7240 h1         1 AZ2       0.034700
     42 H292         0.2040    -0.4550     0.5620 h1         1 AZ2       0.034700
     43 H321         2.3820    -0.9710     1.6880 hc         1 AZ2       0.063700
     44 H322         2.6980     0.7540     1.8540 hc         1 AZ2       0.063700
     45 H361         0.8240    -2.0980     3.1600 ha         1 AZ2       0.142500
     46 H381        -0.5800    -2.0530     5.1800 ha         1 AZ2       0.148000
     47 H411        -0.2560     2.2200     5.2980 ha         1 AZ2       0.148000
     48 H431         1.1570     2.1670     3.2840 ha         1 AZ2       0.142500
     49 H471         0.4850     1.2760     9.3430 h1         1 AZ2       0.107033
     50 H472         0.9110     1.5310     7.6370 h1         1 AZ2       0.107033
     51 H473        -0.6270     2.1830     8.2830 h1         1 AZ2       0.107033
@<TRIPOS>BOND
     1     1     2 1   
     2     1    10 ar  
     3     1    14 ar  
     4     2     3 1   
     5     2    29 1   
     6     2    30 1   
     7     3     4 1   
     8     3     7 1   
     9     3    31 1   
    10     4     5 1   
    11     5     6 1   
    12     5    32 1   
    13     5    33 1   
    14     6    34 1   
    15     6    35 1   
    16     6    36 1   
    17     7     8 1   
    18     7     9 1   
    19    10    11 ar  
    20    10    37 1   
    21    11    12 ar  
    22    11    38 1   
    23    12    13 ar  
    24    12    15 1   
    25    13    14 ar  
    26    13    39 1   
    27    14    40 1   
    28    15    16 1   
    29    16    17 1   
    30    16    41 1   
    31    16    42 1   
    32    17    18 1   
    33    17    43 1   
    34    17    44 1   
    35    18    19 ar  
    36    18    23 ar  
    37    19    20 ar  
    38    19    45 1   
    39    20    21 ar  
    40    20    46 1   
    41    21    22 ar  
    42    21    24 1   
    43    22    23 ar  
    44    22    47 1   
    45    23    48 1   
    46    24    25 1   
    47    25    26 1   
    48    25    27 2   
    49    25    28 2   
    50    26    49 1   
    51    26    50 1   
    52    26    51 1   
@<TRIPOS>SUBSTRUCTURE
     1 AZ2         1 TEMP              0 ****  ****    0 ROOT
