@<TRIPOS>MOLECULE
AZ2
   51    52     1     0     0
SMALL
No Charge or Current Charge


@<TRIPOS>ATOM
      1 C1           0.3030     1.0830    -4.4910 ca         1 AZ2      -0.070300
      2 C2          -0.2070     1.2790    -5.9170 c3         1 AZ2      -0.023100
      3 C5          -0.8450     0.0000    -6.5150 c3         1 AZ2       0.035300
      4 O7           0.1980    -1.0150    -6.5560 os         1 AZ2      -0.463000
      5 C8          -0.2670    -2.3620    -6.7580 c3         1 AZ2       0.177600
      6 C11          0.9600    -3.2890    -6.7410 c3         1 AZ2      -0.087100
      7 C15         -1.5030     0.3170    -7.9100 c          1 AZ2       0.697000
      8 O16         -2.5800     0.9000    -7.9120 o          1 AZ2      -0.724000
      9 O18         -0.9630    -0.0670    -8.9410 o          1 AZ2      -0.724000
     10 C19          1.6820     0.9460    -4.2380 ca         1 AZ2      -0.073500
     11 C21          2.1460     0.7670    -2.9230 ca         1 AZ2      -0.177000
     12 C23          1.2420     0.7230    -1.8500 ca         1 AZ2       0.106100
     13 C24         -0.1410     0.8600    -2.0990 ca         1 AZ2      -0.177000
     14 C26         -0.6040     1.0390    -3.4150 ca         1 AZ2      -0.073500
     15 O28          1.7550     0.5450    -0.5820 os         1 AZ2      -0.361100
     16 C29          0.9130     0.4850     0.5830 c3         1 AZ2       0.170600
     17 C32          1.8190     0.2800     1.8110 c3         1 AZ2      -0.040100
     18 C35          1.0190     0.2020     3.1040 ca         1 AZ2      -0.066300
     19 C36          0.5520    -1.0410     3.5760 ca         1 AZ2      -0.092000
     20 C38         -0.1930    -1.1120     4.7670 ca         1 AZ2      -0.110500
     21 C40         -0.4660     0.0590     5.4960 ca         1 AZ2       0.100100
     22 C41         -0.0210     1.3020     5.0190 ca         1 AZ2      -0.110500
     23 C43          0.7240     1.3740     3.8280 ca         1 AZ2      -0.092000
     24 O45         -1.2120     0.0020     6.6450 os         1 AZ2      -0.438800
     25 S46         -0.4950    -0.4820     8.0520 s6         1 AZ2       1.323700
     26 C47          0.0250     1.1420     8.5920 c3         1 AZ2      -0.381100
     27 O51         -1.5300    -0.9730     8.9710 o          1 AZ2      -0.526000
     28 O52          0.6970    -1.2880     7.7580 o          1 AZ2      -0.526000
     29 H21          0.6020     1.6160    -6.5760 hc         1 AZ2       0.060200
     30 H22         -0.9530     2.0820    -5.9250 hc         1 AZ2       0.060200
     31 H51         -1.6500    -0.3220    -5.8400 h1         1 AZ2       0.014700
     32 H81         -0.7880    -2.4640    -7.7190 h1         1 AZ2       0.017700
     33 H82         -0.9570    -2.6580    -5.9570 h1         1 AZ2       0.017700
     34 H111         0.6500    -4.3300    -6.8850 hc         1 AZ2       0.025367
     35 H112         1.6560    -3.0240    -7.5460 hc         1 AZ2       0.025367
     36 H113         1.4870    -3.2160    -5.7820 hc         1 AZ2       0.025367
     37 H191         2.3930     0.9720    -5.0610 ha         1 AZ2       0.120000
     38 H211         3.2110     0.6600    -2.7360 ha         1 AZ2       0.105500
     39 H241        -0.8670     0.8310    -1.2920 ha         1 AZ2       0.105500
     40 H261        -1.6710     1.1430    -3.5990 ha         1 AZ2       0.120000
     41 H291         0.3450     1.4170     0.7010 h1         1 AZ2       0.034700
     42 H292         0.2060    -0.3520     0.5080 h1         1 AZ2       0.034700
     43 H321         2.4050    -0.6370     1.6720 hc         1 AZ2       0.063700
     44 H322         2.5420     1.1030     1.8620 hc         1 AZ2       0.063700
     45 H361         0.7620    -1.9520     3.0190 ha         1 AZ2       0.124500
     46 H381        -0.5570    -2.0730     5.1210 ha         1 AZ2       0.130000
     47 H411        -0.2540     2.2110     5.5680 ha         1 AZ2       0.130000
     48 H431         1.0690     2.3410     3.4670 ha         1 AZ2       0.124500
     49 H471         0.4990     1.0210     9.5710 h1         1 AZ2       0.107033
     50 H472         0.7340     1.5240     7.8520 h1         1 AZ2       0.107033
     51 H473        -0.8700     1.7690     8.6550 h1         1 AZ2       0.107033
@<TRIPOS>BOND
     1     1     2 1   
     2     1    10 ar  
     3     1    14 ar  
     4     2     3 1   
     5     2    29 1   
     6     2    30 1   
     7     3     4 1   
     8     3     7 1   
     9     3    31 1   
    10     4     5 1   
    11     5     6 1   
    12     5    32 1   
    13     5    33 1   
    14     6    34 1   
    15     6    35 1   
    16     6    36 1   
    17     7     8 1   
    18     7     9 1   
    19    10    11 ar  
    20    10    37 1   
    21    11    12 ar  
    22    11    38 1   
    23    12    13 ar  
    24    12    15 1   
    25    13    14 ar  
    26    13    39 1   
    27    14    40 1   
    28    15    16 1   
    29    16    17 1   
    30    16    41 1   
    31    16    42 1   
    32    17    18 1   
    33    17    43 1   
    34    17    44 1   
    35    18    19 ar  
    36    18    23 ar  
    37    19    20 ar  
    38    19    45 1   
    39    20    21 ar  
    40    20    46 1   
    41    21    22 ar  
    42    21    24 1   
    43    22    23 ar  
    44    22    47 1   
    45    23    48 1   
    46    24    25 1   
    47    25    26 1   
    48    25    27 2   
    49    25    28 2   
    50    26    49 1   
    51    26    50 1   
    52    26    51 1   
@<TRIPOS>SUBSTRUCTURE
     1 AZ2         1 TEMP              0 ****  ****    0 ROOT
