@<TRIPOS>MOLECULE
AZ3
   55    56     1     0     0
SMALL
abcg2


@<TRIPOS>ATOM
      1 N2          11.1480    -0.0020     0.3810 nv         1 AZ3      -1.075200
      2 C7          10.2150     0.8320    -0.1720 ce         1 AZ3       0.666800
      3 N1          10.4590     1.9430    -0.7560 n2         1 AZ3      -0.832100
      4 C3           8.8140     0.3430    -0.1150 ca         1 AZ3      -0.188900
      5 C2           8.5040    -1.0130     0.0210 ca         1 AZ3      -0.039000
      6 C1           7.1930    -1.4460     0.0580 ca         1 AZ3      -0.186250
      7 C4           7.7610     1.2450    -0.2180 ca         1 AZ3      -0.039000
      8 C5           6.4390     0.8280    -0.1730 ca         1 AZ3      -0.186250
      9 C6           6.1440    -0.5280    -0.0350 ca         1 AZ3       0.163100
     10 O1           4.9030    -1.0360     0.0180 os         1 AZ3      -0.349100
     11 C8           3.7850    -0.1610    -0.0500 c3         1 AZ3       0.166600
     12 C9           2.5280    -1.0020     0.0180 c3         1 AZ3      -0.082400
     13 C10          1.2700    -0.1430    -0.0150 c3         1 AZ3      -0.073400
     14 C11         -0.0020    -0.9800     0.0220 c3         1 AZ3      -0.074400
     15 C12         -1.2740    -0.1410     0.0210 c3         1 AZ3      -0.073400
     16 C13         -2.5330    -1.0000     0.0280 c3         1 AZ3      -0.082400
     17 C14         -3.7890    -0.1560     0.0540 c3         1 AZ3       0.166600
     18 O2          -4.9070    -1.0340     0.0370 os         1 AZ3      -0.349100
     19 C15         -6.1480    -0.5250     0.0650 ca         1 AZ3       0.163100
     20 C16         -6.4450     0.8370     0.1250 ca         1 AZ3      -0.186250
     21 C17         -7.7670     1.2530     0.1510 ca         1 AZ3      -0.039000
     22 C20         -7.1960    -1.4480     0.0300 ca         1 AZ3      -0.186250
     23 C19         -8.5080    -1.0150     0.0480 ca         1 AZ3      -0.039000
     24 C18         -8.8190     0.3450     0.1050 ca         1 AZ3      -0.188900
     25 C21        -10.2210     0.8360     0.1390 ce         1 AZ3       0.666800
     26 N3         -10.4610     1.9860     0.6430 n2         1 AZ3      -0.832100
     27 N4         -11.1580    -0.0380    -0.3410 nv         1 AZ3      -1.075200
     28 H1          10.8630    -0.5930     1.1450 hn         1 AZ3       0.458000
     29 H2          12.0820     0.3610     0.4860 hn         1 AZ3       0.458000
     30 H3          11.4450     2.1810    -0.6930 hn         1 AZ3       0.369400
     31 H4           9.2900    -1.7540     0.0780 ha         1 AZ3       0.126500
     32 H5           6.9720    -2.5010     0.1540 ha         1 AZ3       0.123500
     33 H6           7.9760     2.2990    -0.3270 ha         1 AZ3       0.126500
     34 H7           5.6580     1.5720    -0.2440 ha         1 AZ3       0.123500
     35 H8           3.8120     0.5540     0.7800 h1         1 AZ3       0.036200
     36 H9           3.8060     0.4140    -0.9830 h1         1 AZ3       0.036200
     37 H10          2.5150    -1.7040    -0.8210 hc         1 AZ3       0.056200
     38 H11          2.5390    -1.5990     0.9350 hc         1 AZ3       0.056200
     39 H12          1.2750     0.5490     0.8350 hc         1 AZ3       0.039950
     40 H13          1.2690     0.4790    -0.9160 hc         1 AZ3       0.039950
     41 H14         -0.0140    -1.6580    -0.8390 hc         1 AZ3       0.042700
     42 H15          0.0090    -1.6190     0.9120 hc         1 AZ3       0.042700
     43 H16         -1.2730     0.5200     0.8940 hc         1 AZ3       0.039950
     44 H17         -1.2790     0.5120    -0.8580 hc         1 AZ3       0.039950
     45 H18         -2.5420    -1.6410    -0.8590 hc         1 AZ3       0.056200
     46 H19         -2.5210    -1.6610     0.9000 hc         1 AZ3       0.056200
     47 H20         -3.8070     0.4680     0.9550 h1         1 AZ3       0.036200
     48 H21         -3.8180     0.5130    -0.8140 h1         1 AZ3       0.036200
     49 H22         -5.6640     1.5840     0.1500 ha         1 AZ3       0.123500
     50 H23         -7.9830     2.3120     0.1990 ha         1 AZ3       0.126500
     51 H24         -6.9740    -2.5070    -0.0050 ha         1 AZ3       0.123500
     52 H25         -9.2930    -1.7600     0.0390 ha         1 AZ3       0.126500
     53 H26        -11.4490     2.2170     0.5750 hn         1 AZ3       0.369400
     54 H27        -10.8790    -0.6870    -1.0590 hn         1 AZ3       0.458000
     55 H28        -12.0930     0.3160    -0.4660 hn         1 AZ3       0.458000
@<TRIPOS>BOND
     1     1     2 1   
     2     1    28 1   
     3     1    29 1   
     4     2     3 2   
     5     2     4 1   
     6     3    30 1   
     7     4     5 ar  
     8     4     7 ar  
     9     5     6 ar  
    10     5    31 1   
    11     6     9 ar  
    12     6    32 1   
    13     7     8 ar  
    14     7    33 1   
    15     8     9 ar  
    16     8    34 1   
    17     9    10 1   
    18    10    11 1   
    19    11    12 1   
    20    11    35 1   
    21    11    36 1   
    22    12    13 1   
    23    12    37 1   
    24    12    38 1   
    25    13    14 1   
    26    13    39 1   
    27    13    40 1   
    28    14    15 1   
    29    14    41 1   
    30    14    42 1   
    31    15    16 1   
    32    15    43 1   
    33    15    44 1   
    34    16    17 1   
    35    16    45 1   
    36    16    46 1   
    37    17    18 1   
    38    17    47 1   
    39    17    48 1   
    40    18    19 1   
    41    19    20 ar  
    42    19    22 ar  
    43    20    21 ar  
    44    20    49 1   
    45    21    24 ar  
    46    21    50 1   
    47    22    23 ar  
    48    22    51 1   
    49    23    24 ar  
    50    23    52 1   
    51    24    25 1   
    52    25    26 2   
    53    25    27 1   
    54    26    53 1   
    55    27    54 1   
    56    27    55 1   
@<TRIPOS>SUBSTRUCTURE
     1 AZ3         1 TEMP              0 ****  ****    0 ROOT
