@<TRIPOS>MOLECULE
AZ3
   55    56     1     0     0
SMALL
No Charge or Current Charge


@<TRIPOS>ATOM
      1 N2          11.3720    -0.0920     0.3350 nv         1 AZ3      -1.075200
      2 C7          10.4330     0.7370    -0.1650 ce         1 AZ3       0.666800
      3 N1          10.7920     1.8870    -0.5610 n2         1 AZ3      -0.832100
      4 C3           9.0030     0.2980    -0.1010 ca         1 AZ3      -0.188900
      5 C2           8.6560    -1.0730    -0.0770 ca         1 AZ3      -0.039000
      6 C1           7.3070    -1.4680    -0.0510 ca         1 AZ3      -0.186250
      7 C4           7.9630     1.2550    -0.1380 ca         1 AZ3      -0.039000
      8 C5           6.6140     0.8560    -0.1110 ca         1 AZ3      -0.186250
      9 C6           6.2820    -0.5130    -0.0630 ca         1 AZ3       0.163100
     10 O1           4.9780    -0.9630    -0.0360 os         1 AZ3      -0.349100
     11 C8           3.8570    -0.0640    -0.0480 c3         1 AZ3       0.166600
     12 C9           2.5740    -0.9160    -0.0070 c3         1 AZ3      -0.082400
     13 C10          1.2850    -0.0640    -0.0150 c3         1 AZ3      -0.073400
     14 C11         -0.0020    -0.9160     0.0260 c3         1 AZ3      -0.074400
     15 C12         -1.2910    -0.0640     0.0180 c3         1 AZ3      -0.073400
     16 C13         -2.5790    -0.9150     0.0600 c3         1 AZ3      -0.082400
     17 C14         -3.8620    -0.0630     0.0520 c3         1 AZ3       0.166600
     18 O2          -4.9830    -0.9630     0.0930 os         1 AZ3      -0.349100
     19 C15         -6.2870    -0.5120     0.0960 ca         1 AZ3       0.163100
     20 C16         -6.6200     0.8570     0.0660 ca         1 AZ3      -0.186250
     21 C17         -7.9680     1.2560     0.0720 ca         1 AZ3      -0.039000
     22 C20         -7.3110    -1.4670     0.1400 ca         1 AZ3      -0.186250
     23 C19         -8.6600    -1.0720     0.1460 ca         1 AZ3      -0.039000
     24 C18         -9.0080     0.2980     0.0920 ca         1 AZ3      -0.188900
     25 C21        -10.4380     0.7390     0.1330 ce         1 AZ3       0.666800
     26 N3         -10.7970     1.9100     0.4620 n2         1 AZ3      -0.832100
     27 N4         -11.3780    -0.1180    -0.3170 nv         1 AZ3      -1.075200
     28 H1          11.0120    -0.8380     0.9190 hn         1 AZ3       0.458000
     29 H2          12.2200     0.3460     0.6750 hn         1 AZ3       0.458000
     30 H3          11.8090     1.8730    -0.6910 hn         1 AZ3       0.369400
     31 H4           9.4250    -1.8430    -0.0900 ha         1 AZ3       0.126500
     32 H5           7.0540    -2.5250    -0.0280 ha         1 AZ3       0.123500
     33 H6           8.1960     2.3170    -0.1780 ha         1 AZ3       0.126500
     34 H7           5.8460     1.6230    -0.1310 ha         1 AZ3       0.123500
     35 H8           3.8840     0.6010     0.8260 h1         1 AZ3       0.036200
     36 H9           3.8610     0.5500    -0.9590 h1         1 AZ3       0.036200
     37 H10          2.5670    -1.5920    -0.8710 hc         1 AZ3       0.056200
     38 H11          2.5900    -1.5410     0.8940 hc         1 AZ3       0.056200
     39 H12          1.2970     0.6140     0.8480 hc         1 AZ3       0.039950
     40 H13          1.2740     0.5630    -0.9160 hc         1 AZ3       0.039950
     41 H14         -0.0140    -1.5940    -0.8370 hc         1 AZ3       0.042700
     42 H15          0.0090    -1.5430     0.9260 hc         1 AZ3       0.042700
     43 H16         -1.2790     0.6140     0.8810 hc         1 AZ3       0.039950
     44 H17         -1.3030     0.5630    -0.8820 hc         1 AZ3       0.039950
     45 H18         -2.5940    -1.5910    -0.8040 hc         1 AZ3       0.056200
     46 H19         -2.5710    -1.5410     0.9610 hc         1 AZ3       0.056200
     47 H20         -3.8660     0.6010     0.9260 h1         1 AZ3       0.036200
     48 H21         -3.8900     0.5500    -0.8580 h1         1 AZ3       0.036200
     49 H22         -5.8520     1.6250     0.0400 ha         1 AZ3       0.123500
     50 H23         -8.2030     2.3190     0.0520 ha         1 AZ3       0.126500
     51 H24         -7.0580    -2.5240     0.1770 ha         1 AZ3       0.123500
     52 H25         -9.4290    -1.8400     0.2040 ha         1 AZ3       0.126500
     53 H26        -11.8140     1.9030     0.5950 hn         1 AZ3       0.369400
     54 H27        -11.0180    -0.8950    -0.8580 hn         1 AZ3       0.458000
     55 H28        -12.2270     0.3000    -0.6800 hn         1 AZ3       0.458000
@<TRIPOS>BOND
     1     1     2 1   
     2     1    28 1   
     3     1    29 1   
     4     2     3 2   
     5     2     4 1   
     6     3    30 1   
     7     4     5 ar  
     8     4     7 ar  
     9     5     6 ar  
    10     5    31 1   
    11     6     9 ar  
    12     6    32 1   
    13     7     8 ar  
    14     7    33 1   
    15     8     9 ar  
    16     8    34 1   
    17     9    10 1   
    18    10    11 1   
    19    11    12 1   
    20    11    35 1   
    21    11    36 1   
    22    12    13 1   
    23    12    37 1   
    24    12    38 1   
    25    13    14 1   
    26    13    39 1   
    27    13    40 1   
    28    14    15 1   
    29    14    41 1   
    30    14    42 1   
    31    15    16 1   
    32    15    43 1   
    33    15    44 1   
    34    16    17 1   
    35    16    45 1   
    36    16    46 1   
    37    17    18 1   
    38    17    47 1   
    39    17    48 1   
    40    18    19 1   
    41    19    20 ar  
    42    19    22 ar  
    43    20    21 ar  
    44    20    49 1   
    45    21    24 ar  
    46    21    50 1   
    47    22    23 ar  
    48    22    51 1   
    49    23    24 ar  
    50    23    52 1   
    51    24    25 1   
    52    25    26 2   
    53    25    27 1   
    54    26    53 1   
    55    27    54 1   
    56    27    55 1   
@<TRIPOS>SUBSTRUCTURE
     1 AZ3         1 TEMP              0 ****  ****    0 ROOT
