@<TRIPOS>MOLECULE
AZ4
   59    61     1     0     0
SMALL
abcg2


@<TRIPOS>ATOM
      1 C1           4.5400     2.9620     0.6440 c          1 AZ4       0.623900
      2 C2           4.1190     0.9570    -0.7690 c3         1 AZ4       0.154700
      3 C3           4.9010    -0.1120    -0.0050 c3         1 AZ4      -0.079400
      4 O4           1.9120     1.9300    -2.7560 o          1 AZ4      -0.523000
      5 O5          -7.2910    -1.7820     0.3480 os         1 AZ4      -0.314100
      6 N6          -4.2490    -0.8590    -1.2850 nb         1 AZ4      -0.217500
      7 C7           8.2950    -3.1780     1.6680 ca         1 AZ4       0.060000
      8 C8           8.3270    -1.8950     2.1710 ca         1 AZ4       0.080400
      9 C9           2.6250     0.8150    -0.4720 c3         1 AZ4      -0.372400
     10 C10         -0.5090     1.6090     0.2220 c6         1 AZ4       0.182800
     11 C11         -2.0230     1.6510     0.1310 c6         1 AZ4       0.221300
     12 C12         -1.9290     0.4250    -1.9650 c6         1 AZ4       0.221300
     13 C13         -0.4160     0.3780    -1.8690 c6         1 AZ4       0.182800
     14 C14         -3.7340    -0.0220    -0.3770 ca         1 AZ4       0.365900
     15 C15         -5.4080    -1.4170    -1.0110 ca         1 AZ4       0.115900
     16 C16         -6.1000    -1.1650     0.1690 ca         1 AZ4      -0.039900
     17 C19         -5.4870    -0.2880     1.0500 ca         1 AZ4       0.115900
     18 N1           4.6270     2.3010    -0.5280 n          1 AZ4      -0.315300
     19 O2           4.2050     2.4510     1.6950 o          1 AZ4      -0.583100
     20 C4           6.3960    -0.0780    -0.3230 c3         1 AZ4      -0.109700
     21 C5           7.1090    -1.1890     0.3850 ca         1 AZ4       0.119300
     22 N2           7.0380    -2.4020    -0.1570 nb         1 AZ4      -0.155500
     23 C6           7.6290    -3.4000     0.4790 ca         1 AZ4       0.080400
     24 N3           7.7310    -0.9030     1.5240 nb         1 AZ4      -0.155500
     25 S1           1.6180     2.0250    -1.3340 s6         1 AZ4       1.200100
     26 O3           1.7610     3.3080    -0.6630 o          1 AZ4      -0.523000
     27 N4           0.0520     1.5460    -1.1270 n3         1 AZ4      -0.729500
     28 N5          -2.5190     0.5350    -0.6480 nh         1 AZ4      -0.768300
     29 C17         -8.0000    -1.4940     1.5240 c3         1 AZ4       0.086600
     30 C18         -9.3180    -2.2250     1.4180 c3         1 AZ4       0.311000
     31 F2          -9.1530    -3.5450     1.2870 f          1 AZ4      -0.106000
     32 F3         -10.0490    -2.0160     2.5170 f          1 AZ4      -0.106000
     33 F4         -10.0370    -1.8140     0.3690 f          1 AZ4      -0.106000
     34 N7          -4.3210     0.2790     0.7780 nb         1 AZ4      -0.217500
     35 H1           4.8300     4.0170     0.5440 h5         1 AZ4       0.042200
     36 H2           4.2710     0.7770    -1.8340 h1         1 AZ4       0.077700
     37 H3           4.7410    -0.0070     1.0690 hc         1 AZ4       0.068200
     38 H4           4.4950    -1.0840    -0.2950 hc         1 AZ4       0.068200
     39 H5           8.8380    -1.6640     3.1000 h4         1 AZ4       0.043100
     40 H6           2.2900    -0.1710    -0.8020 h1         1 AZ4       0.105700
     41 H7           2.4090     0.9110     0.5920 h1         1 AZ4       0.105700
     42 H8          -0.1670     2.5110     0.7250 h1         1 AZ4       0.064200
     43 H9          -0.1980     0.7410     0.8160 h1         1 AZ4       0.064200
     44 H10         -2.4330     1.6100     1.1360 h1         1 AZ4       0.069700
     45 H11         -2.3310     2.6020    -0.3220 h1         1 AZ4       0.069700
     46 H12         -2.2280     1.2720    -2.5960 h1         1 AZ4       0.069700
     47 H13         -2.2740    -0.4850    -2.4470 h1         1 AZ4       0.069700
     48 H14         -0.1070    -0.5530    -1.3780 h1         1 AZ4       0.064200
     49 H15         -0.0070     0.3870    -2.8770 h1         1 AZ4       0.064200
     50 H16         -5.8230    -2.0930    -1.7520 h4         1 AZ4       0.033100
     51 H17         -5.9330    -0.0220     2.0030 h4         1 AZ4       0.033100
     52 H18          5.7420     2.9510    -1.9000 ho         1 AZ4       0.448000
     53 H19          6.5430    -0.1840    -1.3990 hc         1 AZ4       0.067700
     54 H20          6.8300     0.8740    -0.0150 hc         1 AZ4       0.067700
     55 H21          7.5750    -4.3910     0.0410 h4         1 AZ4       0.043100
     56 H22         -7.4710    -1.8390     2.4190 h1         1 AZ4       0.070200
     57 H23         -8.2000    -0.4230     1.6350 h1         1 AZ4       0.070200
     58 F1           8.8930    -4.1810     2.3120 f          1 AZ4      -0.156000
     59 O1           4.8210     3.0830    -1.6390 oh         1 AZ4      -0.422100
@<TRIPOS>BOND
     1     1    18 1   
     2     1    19 2   
     3     1    35 1   
     4     2     3 1   
     5     2     9 1   
     6     2    18 1   
     7     2    36 1   
     8     3    20 1   
     9     3    37 1   
    10     3    38 1   
    11     4    25 2   
    12     5    16 1   
    13     5    29 1   
    14     6    14 ar  
    15     6    15 ar  
    16     7     8 ar  
    17     7    23 ar  
    18     7    58 1   
    19     8    24 ar  
    20     8    39 1   
    21     9    25 1   
    22     9    40 1   
    23     9    41 1   
    24    10    11 1   
    25    10    27 1   
    26    10    42 1   
    27    10    43 1   
    28    11    28 1   
    29    11    44 1   
    30    11    45 1   
    31    12    13 1   
    32    12    28 1   
    33    12    46 1   
    34    12    47 1   
    35    13    27 1   
    36    13    48 1   
    37    13    49 1   
    38    14    28 1   
    39    14    34 ar  
    40    15    16 ar  
    41    15    50 1   
    42    16    17 ar  
    43    17    34 ar  
    44    17    51 1   
    45    18    59 1   
    46    20    21 1   
    47    20    53 1   
    48    20    54 1   
    49    21    22 ar  
    50    21    24 ar  
    51    22    23 ar  
    52    23    55 1   
    53    25    26 2   
    54    25    27 1   
    55    29    30 1   
    56    29    56 1   
    57    29    57 1   
    58    30    31 1   
    59    30    32 1   
    60    30    33 1   
    61    52    59 1   
@<TRIPOS>SUBSTRUCTURE
     1 AZ4         1 TEMP              0 ****  ****    0 ROOT
