@<TRIPOS>MOLECULE
AZ4
   59    61     1     0     0
SMALL
No Charge or Current Charge


@<TRIPOS>ATOM
      1 C1           4.6590     3.0830     0.9040 c          1 AZ4       0.623900
      2 C2           4.1320     1.1450    -0.7040 c3         1 AZ4       0.154700
      3 C3           4.8450    -0.0280     0.0150 c3         1 AZ4      -0.079400
      4 O4           2.0870     1.9480    -3.0190 o          1 AZ4      -0.523000
      5 O5          -7.3260    -1.8970     0.5050 os         1 AZ4      -0.314100
      6 N6          -4.2270    -1.0730    -1.2430 nb         1 AZ4      -0.217500
      7 C7           8.1260    -3.4450     1.6230 ca         1 AZ4       0.060000
      8 C8           7.9910    -2.2270     2.3110 ca         1 AZ4       0.080400
      9 C9           2.5990     1.0860    -0.5480 c3         1 AZ4      -0.372400
     10 C10         -0.4740     1.8880    -0.0740 c6         1 AZ4       0.182800
     11 C11         -2.0220     1.7130    -0.0170 c6         1 AZ4       0.221300
     12 C12         -1.8810     0.2960    -2.0850 c6         1 AZ4       0.221300
     13 C13         -0.3370     0.5160    -2.0890 c6         1 AZ4       0.182800
     14 C14         -3.7530    -0.1290    -0.3990 ca         1 AZ4       0.365900
     15 C15         -5.4070    -1.6460    -0.9300 ca         1 AZ4       0.115900
     16 C16         -6.1210    -1.2830     0.2250 ca         1 AZ4      -0.039900
     17 C19         -5.5450    -0.2900     1.0470 ca         1 AZ4       0.115900
     18 N1           4.7080     2.4740    -0.3780 n          1 AZ4      -0.315300
     19 O2           4.1660     2.5470     1.8920 o          1 AZ4      -0.583100
     20 C4           6.3750    -0.0910    -0.2220 c3         1 AZ4      -0.109700
     21 C5           7.0110    -1.3030     0.4440 ca         1 AZ4       0.119300
     22 N2           7.0990    -2.4330    -0.2970 nb         1 AZ4      -0.155500
     23 C6           7.6590    -3.5070     0.2980 ca         1 AZ4       0.080400
     24 N3           7.4310    -1.1490     1.7210 nb         1 AZ4      -0.155500
     25 S1           1.7270     2.2290    -1.6250 s6         1 AZ4       1.200100
     26 O3           1.8490     3.5980    -1.1130 o          1 AZ4      -0.523000
     27 N4           0.0650     1.8070    -1.4610 n3         1 AZ4      -0.729500
     28 N5          -2.5040     0.4720    -0.7230 nh         1 AZ4      -0.768300
     29 C17         -8.0970    -1.5590     1.6800 c3         1 AZ4       0.086600
     30 C18         -9.3860    -2.4130     1.7100 c3         1 AZ4       0.311000
     31 F2          -9.0970    -3.7340     1.7520 f          1 AZ4      -0.106000
     32 F3         -10.1270    -2.1150     2.8020 f          1 AZ4      -0.106000
     33 F4         -10.1490    -2.1850     0.6160 f          1 AZ4      -0.106000
     34 N7          -4.3650     0.2830     0.7350 nb         1 AZ4      -0.217500
     35 H1           5.1160     4.0900     0.9140 h5         1 AZ4       0.042200
     36 H2           4.3290     0.9790    -1.7730 h1         1 AZ4       0.077700
     37 H3           4.6490     0.0280     1.0920 hc         1 AZ4       0.068200
     38 H4           4.4000    -0.9700    -0.3300 hc         1 AZ4       0.068200
     39 H5           8.3310    -2.1100     3.3390 h4         1 AZ4       0.043100
     40 H6           2.2370     0.0900    -0.8150 h1         1 AZ4       0.105700
     41 H7           2.2980     1.3210     0.4770 h1         1 AZ4       0.105700
     42 H8          -0.2270     2.8580     0.3830 h1         1 AZ4       0.064200
     43 H9          -0.0210     1.1120     0.5600 h1         1 AZ4       0.064200
     44 H10         -2.3060     1.7050     1.0460 h1         1 AZ4       0.069700
     45 H11         -2.4900     2.6000    -0.4690 h1         1 AZ4       0.069700
     46 H12         -2.3340     1.0060    -2.7910 h1         1 AZ4       0.069700
     47 H13         -2.0630    -0.7130    -2.4820 h1         1 AZ4       0.069700
     48 H14          0.1300    -0.3290    -1.5610 h1         1 AZ4       0.064200
     49 H15          0.0040     0.4660    -3.1330 h1         1 AZ4       0.064200
     50 H16         -5.7830    -2.4040    -1.6150 h4         1 AZ4       0.033100
     51 H17         -6.0190     0.0580     1.9630 h4         1 AZ4       0.033100
     52 H18          6.2490     2.9470    -1.4880 ho         1 AZ4       0.448000
     53 H19          6.5710    -0.1100    -1.3020 hc         1 AZ4       0.067700
     54 H20          6.8420     0.8270     0.1560 hc         1 AZ4       0.067700
     55 H21          7.7330    -4.4200    -0.2910 h4         1 AZ4       0.043100
     56 H22         -7.5190    -1.7560     2.5920 h1         1 AZ4       0.070200
     57 H23         -8.3740    -0.4970     1.6690 h1         1 AZ4       0.070200
     58 F1           8.6870    -4.5230     2.2170 f          1 AZ4      -0.156000
     59 O1           5.2960     3.1950    -1.4830 oh         1 AZ4      -0.422100
@<TRIPOS>BOND
     1     1    18 1   
     2     1    19 2   
     3     1    35 1   
     4     2     3 1   
     5     2     9 1   
     6     2    18 1   
     7     2    36 1   
     8     3    20 1   
     9     3    37 1   
    10     3    38 1   
    11     4    25 2   
    12     5    16 1   
    13     5    29 1   
    14     6    14 ar  
    15     6    15 ar  
    16     7     8 ar  
    17     7    23 ar  
    18     7    58 1   
    19     8    24 ar  
    20     8    39 1   
    21     9    25 1   
    22     9    40 1   
    23     9    41 1   
    24    10    11 1   
    25    10    27 1   
    26    10    42 1   
    27    10    43 1   
    28    11    28 1   
    29    11    44 1   
    30    11    45 1   
    31    12    13 1   
    32    12    28 1   
    33    12    46 1   
    34    12    47 1   
    35    13    27 1   
    36    13    48 1   
    37    13    49 1   
    38    14    28 1   
    39    14    34 ar  
    40    15    16 ar  
    41    15    50 1   
    42    16    17 ar  
    43    17    34 ar  
    44    17    51 1   
    45    18    59 1   
    46    20    21 1   
    47    20    53 1   
    48    20    54 1   
    49    21    22 ar  
    50    21    24 ar  
    51    22    23 ar  
    52    23    55 1   
    53    25    26 2   
    54    25    27 1   
    55    29    30 1   
    56    29    56 1   
    57    29    57 1   
    58    30    31 1   
    59    30    32 1   
    60    30    33 1   
    61    52    59 1   
@<TRIPOS>SUBSTRUCTURE
     1 AZ4         1 TEMP              0 ****  ****    0 ROOT
