@<TRIPOS>MOLECULE
AZ5
   38    40     1     0     0
SMALL
abcg2


@<TRIPOS>ATOM
      1 C3           2.1600    -2.4950    -0.0990 cc         1 AZ5      -0.227000
      2 C19         -5.6970     0.8060     0.4430 ca         1 AZ5       0.086400
      3 C21         -4.5500    -1.2380     0.0760 ca         1 AZ5       0.086400
      4 C10          1.5790     2.9000     0.1050 ca         1 AZ5       0.193900
      5 C20         -5.7140    -0.5750     0.4000 ca         1 AZ5       0.063000
      6 C9           2.6410     2.0340     0.1860 ca         1 AZ5      -0.133000
      7 C2           2.7580    -3.7730    -0.1500 cc         1 AZ5       0.267300
      8 C4           3.2260    -1.6270     0.0230 cd         1 AZ5       0.239000
      9 C8           2.3510     0.6570     0.0680 ca         1 AZ5       0.448900
     10 C17         -3.5030     0.7670    -0.1270 ca         1 AZ5       0.107300
     11 C12          0.1460     1.1810    -0.1690 ca         1 AZ5       0.432900
     12 C1           2.0640    -5.0840    -0.2860 c3         1 AZ5      -0.120400
     13 C16         -2.4040     2.1300    -1.8900 c3         1 AZ5      -0.109100
     14 C15         -2.2650     1.5580    -0.4760 c3         1 AZ5       0.219200
     15 N18         -4.5850     1.4720     0.1780 nb         1 AZ5      -0.159500
     16 N22         -3.4450    -0.5540    -0.1900 nb         1 AZ5      -0.159500
     17 N11          0.3270     2.4990    -0.0740 nb         1 AZ5      -0.274000
     18 N13          1.1100     0.2530    -0.1080 nb         1 AZ5      -0.306000
     19 N5           4.3380    -2.3880     0.0360 na         1 AZ5      -0.049200
     20 N6           4.0710    -3.6950    -0.0670 nd         1 AZ5      -0.520800
     21 N7           3.3490    -0.2580     0.1340 nu         1 AZ5      -0.925900
     22 N14         -1.1030     0.7180    -0.3300 nu         1 AZ5      -0.915100
     23 H3           1.1150    -2.2550    -0.1420 ha         1 AZ5       0.165000
     24 H19         -6.5860     1.3730     0.6980 h4         1 AZ5       0.046100
     25 H21         -4.5060    -2.3200     0.0290 h4         1 AZ5       0.046100
     26 H10          1.7460     3.9690     0.1850 h4         1 AZ5       0.033100
     27 H11C         1.5320    -5.1530    -1.2360 hc         1 AZ5       0.046700
     28 H12C         2.7750    -5.9070    -0.2370 hc         1 AZ5       0.046700
     29 H13C         1.3280    -5.2250     0.5060 hc         1 AZ5       0.046700
     30 H5           5.2930    -2.0760     0.1090 hn         1 AZ5       0.367000
     31 H7           4.2810     0.0990     0.2810 hn         1 AZ5       0.513000
     32 H15         -2.1930     2.3880     0.2300 h1         1 AZ5       0.101700
     33 H14         -1.2230    -0.2760    -0.4460 hn         1 AZ5       0.530000
     34 H161        -2.5010     1.3280    -2.6230 hc         1 AZ5       0.052700
     35 H162        -3.2810     2.7720    -1.9610 hc         1 AZ5       0.052700
     36 H163        -1.5270     2.7250    -2.1390 hc         1 AZ5       0.052700
     37 CL2          4.2560     2.6070     0.4130 cl         1 AZ5      -0.190000
     38 F23         -6.8310    -1.2500     0.6680 f          1 AZ5      -0.154000
@<TRIPOS>BOND
     1     1     7 1   
     2     1     8 2   
     3     1    23 1   
     4     2     5 ar  
     5     2    15 ar  
     6     2    24 1   
     7     3     5 ar  
     8     3    16 ar  
     9     3    25 1   
    10     4     6 ar  
    11     4    17 ar  
    12     4    26 1   
    13     5    38 1   
    14     6     9 ar  
    15     6    37 1   
    16     7    12 1   
    17     7    20 2   
    18     8    19 1   
    19     8    21 1   
    20     9    18 ar  
    21     9    21 1   
    22    10    14 1   
    23    10    15 ar  
    24    10    16 ar  
    25    11    17 ar  
    26    11    18 ar  
    27    11    22 1   
    28    12    27 1   
    29    12    28 1   
    30    12    29 1   
    31    13    14 1   
    32    13    34 1   
    33    13    35 1   
    34    13    36 1   
    35    14    22 1   
    36    14    32 1   
    37    19    20 1   
    38    19    30 1   
    39    21    31 1   
    40    22    33 1   
@<TRIPOS>SUBSTRUCTURE
     1 AZ5         1 TEMP              0 ****  ****    0 ROOT
