@<TRIPOS>MOLECULE
AZ5
   38    40     1     0     0
SMALL
No Charge or Current Charge


@<TRIPOS>ATOM
      1 C3           2.3420    -2.5410    -0.0820 cc         1 AZ5      -0.227000
      2 C19         -5.5890     0.6890     1.0060 ca         1 AZ5       0.086400
      3 C21         -4.9010    -1.1200    -0.4250 ca         1 AZ5       0.086400
      4 C10          1.6280     2.9730     0.0720 ca         1 AZ5       0.193900
      5 C20         -5.8410    -0.5860     0.4720 ca         1 AZ5       0.063000
      6 C9           2.6830     2.0500     0.1610 ca         1 AZ5      -0.133000
      7 C2           2.9110    -3.8220    -0.0670 cc         1 AZ5       0.267300
      8 C4           3.3600    -1.6620     0.0840 cd         1 AZ5       0.239000
      9 C8           2.3530     0.6840     0.0620 ca         1 AZ5       0.448900
     10 C17         -3.6270     0.7900    -0.2000 ca         1 AZ5       0.107300
     11 C12          0.1560     1.2420    -0.1870 ca         1 AZ5       0.432900
     12 C1           2.0900    -5.0690    -0.2240 c3         1 AZ5      -0.120400
     13 C16         -2.4190     2.0710    -2.0430 c3         1 AZ5      -0.109100
     14 C15         -2.3670     1.5860    -0.5790 c3         1 AZ5       0.219200
     15 N18         -4.4800     1.3820     0.6710 nb         1 AZ5      -0.159500
     16 N22         -3.7890    -0.4340    -0.7650 nb         1 AZ5      -0.159500
     17 N11          0.3550     2.5700    -0.1020 nb         1 AZ5      -0.274000
     18 N13          1.0850     0.2800    -0.1120 nb         1 AZ5      -0.306000
     19 N5           4.5060    -2.4540     0.1920 na         1 AZ5      -0.049200
     20 N6           4.2200    -3.8220     0.0970 nd         1 AZ5      -0.520800
     21 N7           3.3510    -0.2880     0.1430 nu         1 AZ5      -0.925900
     22 N14         -1.1400     0.7880    -0.3600 nu         1 AZ5      -0.915100
     23 H3           1.2880    -2.3290    -0.2040 ha         1 AZ5       0.165000
     24 H19         -6.2770     1.1600     1.7060 h4         1 AZ5       0.046100
     25 H21         -5.0350    -2.1020    -0.8760 h4         1 AZ5       0.046100
     26 H10          1.8010     4.0450     0.1410 h4         1 AZ5       0.033100
     27 H11C         1.5620    -5.0660    -1.1840 hc         1 AZ5       0.046700
     28 H12C         2.7170    -5.9680    -0.1850 hc         1 AZ5       0.046700
     29 H13C         1.3430    -5.1440     0.5750 hc         1 AZ5       0.046700
     30 H5           5.4550    -2.1150     0.3250 hn         1 AZ5       0.367000
     31 H7           4.2730     0.1310     0.2760 hn         1 AZ5       0.513000
     32 H15         -2.3400     2.4770     0.0680 h1         1 AZ5       0.101700
     33 H14         -1.2310    -0.2270    -0.4110 hn         1 AZ5       0.530000
     34 H161        -2.4290     1.2230    -2.7380 hc         1 AZ5       0.052700
     35 H162        -3.3240     2.6660    -2.2140 hc         1 AZ5       0.052700
     36 H163        -1.5520     2.6990    -2.2780 hc         1 AZ5       0.052700
     37 Cl2          4.3460     2.6070     0.3900 cl         1 AZ5      -0.190000
     38 F23         -6.9540    -1.2770     0.8100 f          1 AZ5      -0.154000
@<TRIPOS>BOND
     1     1     7 1   
     2     1     8 2   
     3     1    23 1   
     4     2     5 ar  
     5     2    15 ar  
     6     2    24 1   
     7     3     5 ar  
     8     3    16 ar  
     9     3    25 1   
    10     4     6 ar  
    11     4    17 ar  
    12     4    26 1   
    13     5    38 1   
    14     6     9 ar  
    15     6    37 1   
    16     7    12 1   
    17     7    20 2   
    18     8    19 1   
    19     8    21 1   
    20     9    18 ar  
    21     9    21 1   
    22    10    14 1   
    23    10    15 ar  
    24    10    16 ar  
    25    11    17 ar  
    26    11    18 ar  
    27    11    22 1   
    28    12    27 1   
    29    12    28 1   
    30    12    29 1   
    31    13    14 1   
    32    13    34 1   
    33    13    35 1   
    34    13    36 1   
    35    14    22 1   
    36    14    32 1   
    37    19    20 1   
    38    19    30 1   
    39    21    31 1   
    40    22    33 1   
@<TRIPOS>SUBSTRUCTURE
     1 AZ5         1 TEMP              0 ****  ****    0 ROOT
