@<TRIPOS>MOLECULE
AZ6
   57    60     1     0     0
SMALL
abcg2


@<TRIPOS>ATOM
      1 C1          37.4160   -14.2220    21.9180 c3         1 AZ6      -0.093100
      2 C2          38.6170   -13.8660    21.0290 c5         1 AZ6       0.075400
      3 C3          39.7440   -14.8650    21.3080 c3         1 AZ6      -0.329400
      4 N6          38.9950   -12.4690    21.1660 ns         1 AZ6      -0.527900
      5 C7          41.5490   -12.8300    18.5030 c6         1 AZ6       0.208800
      6 C8          43.3930   -14.0520    15.5590 ca         1 AZ6       0.354900
      7 C9          44.0770   -15.1220    13.6530 ca         1 AZ6       0.104400
      8 C10         44.6510   -13.9510    13.1760 ca         1 AZ6      -0.030900
      9 C11         45.3670   -14.9450    11.1270 c3         1 AZ6       0.208900
     10 C12         46.0390   -14.5270     9.8530 ca         1 AZ6      -0.100300
     11 C13         45.2810   -14.1310     8.7520 ca         1 AZ6      -0.065000
     12 C14         45.8950   -13.7290     7.5700 ca         1 AZ6      -0.117000
     13 C15         47.2780   -13.7140     7.4750 ca         1 AZ6      -0.060000
     14 C16         48.0440   -14.1080     8.5790 ca         1 AZ6      -0.022000
     15 C19         44.5580   -12.8410    14.0140 ca         1 AZ6       0.104400
     16 C20         38.7210   -11.7260    20.0710 c          1 AZ6       0.618000
     17 C21         38.1680   -13.9020    19.5550 c          1 AZ6       0.569000
     18 S1          41.3630   -14.4990    20.6270 s6         1 AZ6       1.249100
     19 O1          41.9010   -13.3360    21.2950 o          1 AZ6      -0.545000
     20 O2          42.1000   -15.7420    20.7080 o          1 AZ6      -0.545000
     21 N1          41.0750   -14.0990    19.0700 n3         1 AZ6      -0.802500
     22 C4          40.9510   -15.1670    18.0670 c6         1 AZ6       0.208800
     23 C5          42.2500   -15.3580    17.2980 c6         1 AZ6       0.196300
     24 N2          42.6970   -14.0850    16.7430 nh         1 AZ6      -0.773300
     25 C6          42.8450   -13.0200    17.7270 c6         1 AZ6       0.196300
     26 N3          43.4580   -15.1760    14.8340 nb         1 AZ6      -0.213500
     27 O3          45.2960   -13.7940    11.9860 os         1 AZ6      -0.335100
     28 C17         49.4690   -14.1010     8.4910 cg         1 AZ6       0.321000
     29 N4          50.6200   -14.0940     8.4210 n1         1 AZ6      -0.446000
     30 C18         47.4260   -14.5150     9.7650 ca         1 AZ6      -0.045000
     31 N5          43.9470   -12.8800    15.1880 nb         1 AZ6      -0.213500
     32 N7          38.1970   -12.6130    19.1160 ns         1 AZ6      -0.478500
     33 H1          37.6950   -14.1050    22.9650 hc         1 AZ6       0.057033
     34 H2          36.5780   -13.5610    21.6960 hc         1 AZ6       0.057033
     35 H3          37.1140   -15.2540    21.7430 hc         1 AZ6       0.057033
     36 H4          39.9190   -14.9600    22.3810 h1         1 AZ6       0.116700
     37 H5          39.4580   -15.8410    20.9190 h1         1 AZ6       0.116700
     38 H6          39.3480   -12.0600    22.0160 hn         1 AZ6       0.364500
     39 H7          41.6900   -12.1080    19.3000 h1         1 AZ6       0.075450
     40 H8          40.7640   -12.4670    17.8350 h1         1 AZ6       0.075450
     41 H9          44.1130   -16.0460    13.0890 h4         1 AZ6       0.032100
     42 H10         44.3580   -15.3100    10.9230 h1         1 AZ6       0.045200
     43 H11         45.9350   -15.7350    11.6260 h1         1 AZ6       0.045200
     44 H12         44.2000   -14.1440     8.8190 ha         1 AZ6       0.121000
     45 H13         45.2950   -13.4280     6.7220 ha         1 AZ6       0.124000
     46 H14         47.7680   -13.4060     6.5610 ha         1 AZ6       0.128000
     47 H15         45.0030   -11.8980    13.7110 h4         1 AZ6       0.032100
     48 H16         40.1510   -14.8720    17.3850 h1         1 AZ6       0.075450
     49 H17         40.6600   -16.0960    18.5500 h1         1 AZ6       0.075450
     50 H18         42.0890   -16.0610    16.4880 h1         1 AZ6       0.071200
     51 H19         43.0180   -15.7700    17.9640 h1         1 AZ6       0.071200
     52 H20         43.6550   -13.2670    18.4260 h1         1 AZ6       0.071200
     53 H21         43.1000   -12.0960    17.2180 h1         1 AZ6       0.071200
     54 H22         48.0290   -14.8240    10.6080 ha         1 AZ6       0.130000
     55 H23         37.9490   -12.3190    18.1820 hn         1 AZ6       0.357500
     56 O4          38.8860   -10.5330    19.9010 o          1 AZ6      -0.535000
     57 O5          37.8140   -14.8840    18.9400 o          1 AZ6      -0.508000
@<TRIPOS>BOND
     1     1     2 1   
     2     1    33 1   
     3     1    34 1   
     4     1    35 1   
     5     2     3 1   
     6     2     4 1   
     7     2    17 1   
     8     3    18 1   
     9     3    36 1   
    10     3    37 1   
    11     4    16 1   
    12     4    38 1   
    13     5    21 1   
    14     5    25 1   
    15     5    39 1   
    16     5    40 1   
    17     6    24 1   
    18     6    26 ar  
    19     6    31 ar  
    20     7     8 ar  
    21     7    26 ar  
    22     7    41 1   
    23     8    15 ar  
    24     8    27 1   
    25     9    10 1   
    26     9    27 1   
    27     9    42 1   
    28     9    43 1   
    29    10    11 ar  
    30    10    30 ar  
    31    11    12 ar  
    32    11    44 1   
    33    12    13 ar  
    34    12    45 1   
    35    13    14 ar  
    36    13    46 1   
    37    14    28 1   
    38    14    30 ar  
    39    15    31 ar  
    40    15    47 1   
    41    16    32 1   
    42    16    56 2   
    43    17    32 1   
    44    17    57 2   
    45    18    19 2   
    46    18    20 2   
    47    18    21 1   
    48    21    22 1   
    49    22    23 1   
    50    22    48 1   
    51    22    49 1   
    52    23    24 1   
    53    23    50 1   
    54    23    51 1   
    55    24    25 1   
    56    25    52 1   
    57    25    53 1   
    58    28    29 3   
    59    30    54 1   
    60    32    55 1   
@<TRIPOS>SUBSTRUCTURE
     1 AZ6         1 TEMP              0 ****  ****    0 ROOT
