@<TRIPOS>MOLECULE
AZ6
   57    60     1     0     0
SMALL
No Charge or Current Charge


@<TRIPOS>ATOM
      1 C1          38.1820   -15.3240    22.4330 c3         1 AZ6      -0.093100
      2 C2          38.9010   -14.2690    21.5610 c5         1 AZ6       0.075400
      3 C3          40.2950   -14.8130    21.1360 c3         1 AZ6      -0.329400
      4 N6          39.0030   -12.9780    22.2710 ns         1 AZ6      -0.527900
      5 C7          40.9790   -12.1990    18.0100 c6         1 AZ6       0.208800
      6 C8          42.9410   -13.6840    15.0200 ca         1 AZ6       0.354900
      7 C9          43.7100   -14.9520    13.2510 ca         1 AZ6       0.104400
      8 C10         44.4950   -13.8640    12.8110 ca         1 AZ6      -0.030900
      9 C11         45.4020   -15.0960    10.8800 c3         1 AZ6       0.208900
     10 C12         46.3690   -14.8170     9.7390 ca         1 AZ6      -0.100300
     11 C13         45.8850   -14.4710     8.4620 ca         1 AZ6      -0.065000
     12 C14         46.7820   -14.2130     7.4110 ca         1 AZ6      -0.117000
     13 C15         48.1680   -14.2980     7.6290 ca         1 AZ6      -0.060000
     14 C16         48.6610   -14.6410     8.9030 ca         1 AZ6      -0.022000
     15 C19         44.4320   -12.6830    13.5730 ca         1 AZ6       0.104400
     16 C20         38.3450   -11.9810    21.6170 c          1 AZ6       0.618000
     17 C21         37.9870   -13.8630    20.3400 c          1 AZ6       0.569000
     18 S1          41.4360   -13.8350    20.1440 s6         1 AZ6       1.249100
     19 O1          41.6820   -12.5780    20.8570 o          1 AZ6      -0.545000
     20 O2          42.5670   -14.6660    19.7250 o          1 AZ6      -0.545000
     21 N1          40.5380   -13.4230    18.7340 n3         1 AZ6      -0.802500
     22 C4          40.2870   -14.5170    17.7490 c6         1 AZ6       0.208800
     23 C5          41.4950   -14.8190    16.7960 c6         1 AZ6       0.196300
     24 N2          42.1220   -13.5890    16.1810 nh         1 AZ6      -0.773300
     25 C6          42.2540   -12.4290    17.1380 c6         1 AZ6       0.196300
     26 N3          42.9360   -14.8600    14.3520 nb         1 AZ6      -0.213500
     27 O3          45.3030   -13.9110    11.6910 os         1 AZ6      -0.335100
     28 C17         50.0770   -14.7270     9.1300 cg         1 AZ6       0.321000
     29 N4          51.2270   -14.8050     9.3190 n1         1 AZ6      -0.446000
     30 C18         47.7600   -14.9000     9.9540 ca         1 AZ6      -0.045000
     31 N5          43.6580   -12.5910    14.6730 nb         1 AZ6      -0.213500
     32 N7          37.7890   -12.5440    20.5400 ns         1 AZ6      -0.478500
     33 H1          38.7600   -15.5550    23.3350 hc         1 AZ6       0.057033
     34 H2          37.1960   -14.9680    22.7520 hc         1 AZ6       0.057033
     35 H3          38.0340   -16.2600    21.8810 hc         1 AZ6       0.057033
     36 H4          40.8730   -15.0580    22.0330 h1         1 AZ6       0.116700
     37 H5          40.1610   -15.7360    20.5640 h1         1 AZ6       0.116700
     38 H6          39.5190   -12.7720    23.1190 hn         1 AZ6       0.364500
     39 H7          41.1560   -11.3620    18.7000 h1         1 AZ6       0.075450
     40 H8          40.1760   -11.8670    17.3360 h1         1 AZ6       0.075450
     41 H9          43.6910   -15.9070    12.7300 h4         1 AZ6       0.032100
     42 H10         44.4190   -15.3700    10.4740 h1         1 AZ6       0.045200
     43 H11         45.7730   -15.9410    11.4740 h1         1 AZ6       0.045200
     44 H12         44.8140   -14.3990     8.2840 ha         1 AZ6       0.121000
     45 H13         46.4020   -13.9460     6.4270 ha         1 AZ6       0.124000
     46 H14         48.8550   -14.0970     6.8090 ha         1 AZ6       0.128000
     47 H15         45.0070   -11.8000    13.3000 h4         1 AZ6       0.032100
     48 H16         39.4390   -14.2300    17.1110 h1         1 AZ6       0.075450
     49 H17         39.9820   -15.4460    18.2500 h1         1 AZ6       0.075450
     50 H18         41.1150   -15.4930    16.0150 h1         1 AZ6       0.071200
     51 H19         42.2580   -15.3850    17.3470 h1         1 AZ6       0.071200
     52 H20         43.1160   -12.5900    17.8020 h1         1 AZ6       0.071200
     53 H21         42.4400   -11.4900    16.5960 h1         1 AZ6       0.071200
     54 H22         48.1370   -15.1620    10.9410 ha         1 AZ6       0.130000
     55 H23         37.2320   -11.9990    19.9020 hn         1 AZ6       0.357500
     56 O4          38.2660   -10.8170    21.9540 o          1 AZ6      -0.535000
     57 O5          37.4890   -14.5330    19.4470 o          1 AZ6      -0.508000
@<TRIPOS>BOND
     1     1     2 1   
     2     1    33 1   
     3     1    34 1   
     4     1    35 1   
     5     2     3 1   
     6     2     4 1   
     7     2    17 1   
     8     3    18 1   
     9     3    36 1   
    10     3    37 1   
    11     4    16 1   
    12     4    38 1   
    13     5    21 1   
    14     5    25 1   
    15     5    39 1   
    16     5    40 1   
    17     6    24 1   
    18     6    26 ar  
    19     6    31 ar  
    20     7     8 ar  
    21     7    26 ar  
    22     7    41 1   
    23     8    15 ar  
    24     8    27 1   
    25     9    10 1   
    26     9    27 1   
    27     9    42 1   
    28     9    43 1   
    29    10    11 ar  
    30    10    30 ar  
    31    11    12 ar  
    32    11    44 1   
    33    12    13 ar  
    34    12    45 1   
    35    13    14 ar  
    36    13    46 1   
    37    14    28 1   
    38    14    30 ar  
    39    15    31 ar  
    40    15    47 1   
    41    16    32 1   
    42    16    56 2   
    43    17    32 1   
    44    17    57 2   
    45    18    19 2   
    46    18    20 2   
    47    18    21 1   
    48    21    22 1   
    49    22    23 1   
    50    22    48 1   
    51    22    49 1   
    52    23    24 1   
    53    23    50 1   
    54    23    51 1   
    55    24    25 1   
    56    25    52 1   
    57    25    53 1   
    58    28    29 3   
    59    30    54 1   
    60    32    55 1   
@<TRIPOS>SUBSTRUCTURE
     1 AZ6         1 TEMP              0 ****  ****    0 ROOT
