@<TRIPOS>MOLECULE
AZ7
   36    38     1     0     0
SMALL
No Charge or Current Charge


@<TRIPOS>ATOM
      1 Cl6         -6.8670    -0.9280    -1.1300 cl         1 AZ7      -0.221000
      2 C5          -5.2950    -0.3120    -0.6380 ca         1 AZ7       0.096000
      3 C6          -5.1910     0.5020     0.5120 ca         1 AZ7      -0.095000
      4 C1          -3.9340     0.9980     0.9100 ca         1 AZ7       0.126000
      5 Cl5         -3.7790     2.0150     2.3380 cl         1 AZ7      -0.200000
      6 C4          -4.1480    -0.6350    -1.3940 ca         1 AZ7      -0.041000
      7 C3          -2.9070    -0.1290    -0.9770 ca         1 AZ7       0.091400
      8 N9          -1.6710    -0.3220    -1.5690 nc         1 AZ7      -0.584100
      9 C8          -0.8530     0.3750    -0.7560 cd         1 AZ7       0.463800
     10 N7          -1.5020     1.0100     0.3090 na         1 AZ7      -0.294600
     11 C2          -2.8150     0.6580     0.1350 ca         1 AZ7      -0.082200
     12 C10          0.6310     0.4720    -1.0030 c3         1 AZ7      -0.109700
     13 C11          1.5050    -0.2040     0.0900 c3         1 AZ7       0.002600
     14 C19          1.2840    -1.7430     0.1590 c3         1 AZ7      -0.211400
     15 C20          2.0180    -2.3480     1.3680 c          1 AZ7       0.718000
     16 O22          1.4490    -2.3340     2.4490 o          1 AZ7      -0.733500
     17 O21          3.1420    -2.7940     1.2010 o          1 AZ7      -0.733500
     18 C12          2.9820     0.1600    -0.1070 ca         1 AZ7      -0.027300
     19 C17          3.6690     0.8830     0.8910 ca         1 AZ7      -0.084000
     20 C16          5.0210     1.2290     0.7180 ca         1 AZ7      -0.111500
     21 C15          5.6960     0.8560    -0.4550 ca         1 AZ7       0.111000
     22 Cl9          7.3860     1.2900    -0.6720 cl         1 AZ7      -0.246000
     23 C14          5.0220     0.1380    -1.4550 ca         1 AZ7      -0.111500
     24 C13          3.6710    -0.2090    -1.2830 ca         1 AZ7      -0.084000
     25 H6          -6.0780     0.7460     1.0890 ha         1 AZ7       0.134000
     26 H4          -4.2220    -1.2600    -2.2790 ha         1 AZ7       0.143000
     27 H7          -1.0870     1.5920     1.0250 hn         1 AZ7       0.372000
     28 H101         0.8710     0.0400    -1.9810 hc         1 AZ7       0.059700
     29 H102         0.9040     1.5320    -1.0660 hc         1 AZ7       0.059700
     30 H11          1.1750     0.2070     1.0540 hc         1 AZ7       0.062700
     31 H191         0.2050    -1.8820     0.2950 hc         1 AZ7       0.031200
     32 H192         1.6620    -2.1690    -0.7770 hc         1 AZ7       0.031200
     33 H17          3.1580     1.1780     1.8050 ha         1 AZ7       0.119500
     34 H13          3.1620    -0.7660    -2.0650 ha         1 AZ7       0.119500
     35 H16          5.5440     1.7850     1.4910 ha         1 AZ7       0.114500
     36 H14          5.5460    -0.1500    -2.3630 ha         1 AZ7       0.114500
@<TRIPOS>BOND
     1     1     2 1   
     2     2     3 ar  
     3     2     6 ar  
     4     3     4 ar  
     5     3    25 1   
     6     4     5 1   
     7     4    11 ar  
     8     6     7 ar  
     9     6    26 1   
    10     7     8 1   
    11     7    11 ar  
    12     8     9 2   
    13     9    10 1   
    14     9    12 1   
    15    10    11 1   
    16    10    27 1   
    17    12    13 1   
    18    12    28 1   
    19    12    29 1   
    20    13    14 1   
    21    13    18 1   
    22    13    30 1   
    23    14    15 1   
    24    14    31 1   
    25    14    32 1   
    26    15    16 1   
    27    15    17 1   
    28    18    19 ar  
    29    18    24 ar  
    30    19    20 ar  
    31    19    33 1   
    32    20    21 ar  
    33    20    35 1   
    34    21    22 1   
    35    21    23 ar  
    36    23    24 ar  
    37    23    36 1   
    38    24    34 1   
@<TRIPOS>SUBSTRUCTURE
     1 AZ7         1 TEMP              0 ****  ****    0 ROOT
