@<TRIPOS>MOLECULE
AZ7
   36    38     1     0     0
SMALL
bcc


@<TRIPOS>ATOM
      1 CL6         -6.7440    -0.9140    -1.1770 cl         1 AZ7      -0.129400
      2 C5          -5.1860    -0.3380    -0.6730 ca         1 AZ7       0.004400
      3 C6          -5.1100     0.3660     0.5350 ca         1 AZ7      -0.113000
      4 C1          -3.8880     0.8440     0.9660 ca         1 AZ7       0.034400
      5 CL5         -3.7370     1.7190     2.4450 cl         1 AZ7      -0.108400
      6 C4          -4.0880    -0.5880    -1.4710 ca         1 AZ7      -0.059000
      7 C3          -2.8610    -0.1010    -1.0260 ca         1 AZ7       0.091400
      8 N9          -1.6180    -0.1920    -1.6010 nc         1 AZ7      -0.584100
      9 C8          -0.8090     0.4300    -0.7850 cd         1 AZ7       0.463800
     10 N7          -1.4520     0.9290     0.3060 na         1 AZ7      -0.244300
     11 C2          -2.7710     0.6060     0.1830 ca         1 AZ7      -0.082200
     12 C10          0.6570     0.5940    -0.9680 c3         1 AZ7      -0.109700
     13 C11          1.4810    -0.1150     0.1250 c3         1 AZ7       0.002600
     14 C19          1.2260    -1.6190     0.1390 c3         1 AZ7      -0.211400
     15 C20          1.9830    -2.3620     1.2540 c          1 AZ7       0.928600
     16 O22          2.1570    -1.7450     2.3230 o          1 AZ7      -0.838800
     17 O21          2.3300    -3.5360     1.0100 o          1 AZ7      -0.838800
     18 C12          2.9440     0.2030    -0.0650 ca         1 AZ7      -0.027300
     19 C17          3.6140     1.0310     0.8290 ca         1 AZ7      -0.102000
     20 C16          4.9540     1.3480     0.6590 ca         1 AZ7      -0.129500
     21 C15          5.6360     0.8230    -0.4260 ca         1 AZ7       0.019400
     22 CL9          7.3140     1.2070    -0.6500 cl         1 AZ7      -0.154400
     23 C14          4.9980    -0.0060    -1.3350 ca         1 AZ7      -0.129500
     24 C13          3.6580    -0.3080    -1.1470 ca         1 AZ7      -0.102000
     25 H6          -6.0000     0.5360     1.1250 ha         1 AZ7       0.152000
     26 H4          -4.1720    -1.1360    -2.4000 ha         1 AZ7       0.161000
     27 H7          -1.0300     1.4490     1.0600 hn         1 AZ7       0.321700
     28 H101         0.9150     0.2040    -1.9530 hc         1 AZ7       0.059700
     29 H102         0.8990     1.6610    -0.9710 hc         1 AZ7       0.059700
     30 H11          1.1880     0.2880     1.0980 hc         1 AZ7       0.062700
     31 H191         0.1550    -1.8000     0.2910 hc         1 AZ7       0.031200
     32 H192         1.4650    -2.0540    -0.8350 hc         1 AZ7       0.031200
     33 H17          3.0820     1.4390     1.6800 ha         1 AZ7       0.137500
     34 H13          3.1690    -0.9570    -1.8640 ha         1 AZ7       0.137500
     35 H16          5.4580     1.9920     1.3670 ha         1 AZ7       0.132500
     36 H14          5.5360    -0.4150    -2.1800 ha         1 AZ7       0.132500
@<TRIPOS>BOND
     1     1     2 1   
     2     2     3 ar  
     3     2     6 ar  
     4     3     4 ar  
     5     3    25 1   
     6     4     5 1   
     7     4    11 ar  
     8     6     7 ar  
     9     6    26 1   
    10     7     8 1   
    11     7    11 ar  
    12     8     9 2   
    13     9    10 1   
    14     9    12 1   
    15    10    11 1   
    16    10    27 1   
    17    12    13 1   
    18    12    28 1   
    19    12    29 1   
    20    13    14 1   
    21    13    18 1   
    22    13    30 1   
    23    14    15 1   
    24    14    31 1   
    25    14    32 1   
    26    15    16 1   
    27    15    17 1   
    28    18    19 ar  
    29    18    24 ar  
    30    19    20 ar  
    31    19    33 1   
    32    20    21 ar  
    33    20    35 1   
    34    21    22 1   
    35    21    23 ar  
    36    23    24 ar  
    37    23    36 1   
    38    24    34 1   
@<TRIPOS>SUBSTRUCTURE
     1 AZ7         1 TEMP              0 ****  ****    0 ROOT
