@<TRIPOS>MOLECULE
AZ8
   15    16     1     0     0
SMALL
No Charge or Current Charge


@<TRIPOS>ATOM
      1 C7           0.4290     0.7790     0.0140 ca         1 AZ8       0.397900
      2 N6           1.4910     1.6060     0.0320 nb         1 AZ8      -0.330000
      3 N5           2.7200     1.0430     0.0270 nb         1 AZ8      -0.023000
      4 C4           2.8230    -0.3100     0.0050 ca         1 AZ8       0.017900
      5 N3           1.7860    -1.1820    -0.0140 nb         1 AZ8      -0.044000
      6 C2           0.5600    -0.6090    -0.0090 ca         1 AZ8      -0.022500
      7 C1          -0.7010    -1.4150    -0.0280 c          1 AZ8       0.491500
      8 O1          -0.7230    -2.6360    -0.0490 o          1 AZ8      -0.456000
      9 N10         -1.8630    -0.6780    -0.0200 ns         1 AZ8      -0.478500
     10 C9          -2.0070     0.6800     0.0020 c          1 AZ8       0.634000
     11 O2          -3.0870     1.2360     0.0080 o          1 AZ8      -0.519000
     12 N8          -0.8320     1.3570     0.0190 ns         1 AZ8      -0.582900
     13 H1           3.8260    -0.7320     0.0010 h5         1 AZ8       0.074100
     14 H2          -2.7230    -1.2050    -0.0330 hn         1 AZ8       0.354500
     15 H3          -0.8820     2.3670     0.0360 hn         1 AZ8       0.484000
@<TRIPOS>BOND
     1     1     2 ar  
     2     1     6 ar  
     3     1    12 1   
     4     2     3 ar  
     5     3     4 ar  
     6     4     5 ar  
     7     4    13 1   
     8     5     6 ar  
     9     6     7 1   
    10     7     8 2   
    11     7     9 1   
    12     9    10 1   
    13     9    14 1   
    14    10    11 2   
    15    10    12 1   
    16    12    15 1   
@<TRIPOS>SUBSTRUCTURE
     1 AZ8         1 TEMP              0 ****  ****    0 ROOT
