@<TRIPOS>MOLECULE
AZ8
   15    16     1     0     0
SMALL
abcg2


@<TRIPOS>ATOM
      1 C7           0.4250     0.8000     0.0140 ca         1 AZ8       0.397900
      2 N6           1.4990     1.5750     0.0310 nb         1 AZ8      -0.330000
      3 N5           2.6720     1.0080     0.0250 nb         1 AZ8      -0.023000
      4 C4           2.7590    -0.3150     0.0040 ca         1 AZ8       0.017900
      5 N3           1.7300    -1.1510    -0.0130 nb         1 AZ8      -0.044000
      6 C2           0.5460    -0.5910    -0.0070 ca         1 AZ8      -0.022500
      7 C1          -0.6750    -1.4290    -0.0270 c          1 AZ8       0.491500
      8 O1          -0.6600    -2.6340    -0.0450 o          1 AZ8      -0.456000
      9 N10         -1.8330    -0.6930    -0.0220 ns         1 AZ8      -0.478500
     10 C9          -1.9770     0.6830     0.0020 c          1 AZ8       0.634000
     11 O2          -3.0610     1.2140     0.0080 o          1 AZ8      -0.519000
     12 N8          -0.8020     1.3850     0.0200 ns         1 AZ8      -0.582900
     13 H1           3.7570    -0.7310    -0.0010 h5         1 AZ8       0.074100
     14 H2          -2.7030    -1.2150    -0.0380 hn         1 AZ8       0.354500
     15 H3          -0.8600     2.3960     0.0390 hn         1 AZ8       0.484000
@<TRIPOS>BOND
     1     1     2 ar  
     2     1     6 ar  
     3     1    12 1   
     4     2     3 ar  
     5     3     4 ar  
     6     4     5 ar  
     7     4    13 1   
     8     5     6 ar  
     9     6     7 1   
    10     7     8 2   
    11     7     9 1   
    12     9    10 1   
    13     9    14 1   
    14    10    11 2   
    15    10    12 1   
    16    12    15 1   
@<TRIPOS>SUBSTRUCTURE
     1 AZ8         1 TEMP              0 ****  ****    0 ROOT
