@<TRIPOS>MOLECULE
AZ9
   18    19     1     0     0
SMALL
No Charge or Current Charge


@<TRIPOS>ATOM
      1 C7          -0.8270     0.7950     0.0030 ca         1 AZ9       0.397900
      2 N6          -2.0050     1.4440    -0.0030 nb         1 AZ9      -0.330000
      3 N5          -3.1310     0.6960    -0.0020 nb         1 AZ9      -0.024000
      4 C4          -3.0190    -0.6550     0.0050 ca         1 AZ9       0.016900
      5 N3          -1.8570    -1.3510     0.0100 nb         1 AZ9      -0.044000
      6 C2          -0.7350    -0.5940     0.0100 ca         1 AZ9      -0.021500
      7 C1           0.6320    -1.2040     0.0150 c          1 AZ9       0.485500
      8 O1           0.7930    -2.4180     0.0070 o          1 AZ9      -0.458000
      9 N10          1.7250    -0.3020     0.0250 n          1 AZ9      -0.379400
     10 C12          3.0990    -0.8740     0.0310 c3         1 AZ9       0.084300
     11 C9           1.5910     1.1010     0.0050 c          1 AZ9       0.628000
     12 O2           2.5310     1.8730    -0.0090 o          1 AZ9      -0.521000
     13 N8           0.3180     1.5660    -0.0010 ns         1 AZ9      -0.580900
     14 H1          -3.9430    -1.2310     0.0050 h5         1 AZ9       0.073100
     15 H2           3.4030    -1.1130    -0.9960 h1         1 AZ9       0.063367
     16 H3           3.8210    -0.1670     0.4600 h1         1 AZ9       0.063367
     17 H4           3.1340    -1.7890     0.6350 h1         1 AZ9       0.063367
     18 H5           0.1990     2.5710    -0.0140 hn         1 AZ9       0.484000
@<TRIPOS>BOND
     1     1     2 ar  
     2     1     6 ar  
     3     1    13 1   
     4     2     3 ar  
     5     3     4 ar  
     6     4     5 ar  
     7     4    14 1   
     8     5     6 ar  
     9     6     7 1   
    10     7     8 2   
    11     7     9 1   
    12     9    10 1   
    13     9    11 1   
    14    10    15 1   
    15    10    16 1   
    16    10    17 1   
    17    11    12 2   
    18    11    13 1   
    19    13    18 1   
@<TRIPOS>SUBSTRUCTURE
     1 AZ9         1 TEMP              0 ****  ****    0 ROOT
