@<TRIPOS>MOLECULE
AZ9
   18    19     1     0     0
SMALL
abcg2


@<TRIPOS>ATOM
      1 C7          -0.8190     0.8170    -0.0030 ca         1 AZ9       0.397900
      2 N6          -2.0020     1.4110     0.0010 nb         1 AZ9      -0.330000
      3 N5          -3.0680     0.6600     0.0220 nb         1 AZ9      -0.024000
      4 C4          -2.9370    -0.6590     0.0340 ca         1 AZ9       0.016900
      5 N3          -1.7860    -1.3170     0.0280 nb         1 AZ9      -0.044000
      6 C2          -0.7090    -0.5720     0.0110 ca         1 AZ9      -0.021500
      7 C1           0.6300    -1.2040     0.0030 c          1 AZ9       0.485500
      8 O1           0.7750    -2.4010    -0.0220 o          1 AZ9      -0.458000
      9 N10          1.6860    -0.3160     0.0330 n          1 AZ9      -0.379400
     10 C12          3.0410    -0.8610     0.0540 c3         1 AZ9       0.084300
     11 C9           1.5740     1.0710    -0.0340 c          1 AZ9       0.628000
     12 O2           2.5430     1.7900    -0.0890 o          1 AZ9      -0.521000
     13 N8           0.3020     1.5790    -0.0290 ns         1 AZ9      -0.580900
     14 H1          -3.8540    -1.2330     0.0500 h5         1 AZ9       0.073100
     15 H2           3.4400    -0.9410    -0.9560 h1         1 AZ9       0.063367
     16 H3           3.6840    -0.2180     0.6440 h1         1 AZ9       0.063367
     17 H4           3.0200    -1.8450     0.5060 h1         1 AZ9       0.063367
     18 H5           0.2080     2.5860    -0.0660 hn         1 AZ9       0.484000
@<TRIPOS>BOND
     1     1     2 ar  
     2     1     6 ar  
     3     1    13 1   
     4     2     3 ar  
     5     3     4 ar  
     6     4     5 ar  
     7     4    14 1   
     8     5     6 ar  
     9     6     7 1   
    10     7     8 2   
    11     7     9 1   
    12     9    10 1   
    13     9    11 1   
    14    10    15 1   
    15    10    16 1   
    16    10    17 1   
    17    11    12 2   
    18    11    13 1   
    19    13    18 1   
@<TRIPOS>SUBSTRUCTURE
     1 AZ9         1 TEMP              0 ****  ****    0 ROOT
