@<TRIPOS>MOLECULE
AZA
   14    15     1     0     0
SMALL
abcg2


@<TRIPOS>ATOM
      1 N1           0.7150    -0.0160    -1.5260 ns         1 AZA      -0.483500
      2 C2          -0.6420     0.0170    -1.7820 c          1 AZA       0.637000
      3 O2          -1.0890     0.0390    -2.9050 o          1 AZA      -0.531000
      4 N3          -1.4490     0.0230    -0.6660 ns         1 AZA      -0.500600
      5 C4          -0.8860     0.0000     0.5610 cc         1 AZA       0.025600
      6 C5           0.4670    -0.0310     0.7930 cd         1 AZA       0.073500
      7 C6           1.3920    -0.0400    -0.3090 c          1 AZA       0.532500
      8 O6           2.6010    -0.0650    -0.2540 o          1 AZA      -0.478000
      9 N7           0.6650    -0.0460     2.1320 nd         1 AZA      -0.258000
     10 N8          -0.4670    -0.0270     2.7140 nc         1 AZA      -0.177800
     11 N9          -1.4300     0.0020     1.7740 na         1 AZA      -0.048200
     12 HN1          1.2970    -0.0190    -2.3550 hn         1 AZA       0.350500
     13 HN3         -2.4510     0.0480    -0.7990 hn         1 AZA       0.471000
     14 HN9         -2.4050     0.0170     2.0420 hn         1 AZA       0.388000
@<TRIPOS>BOND
     1     1     2 1   
     2     1     7 1   
     3     1    12 1   
     4     2     3 2   
     5     2     4 1   
     6     4     5 1   
     7     4    13 1   
     8     5     6 2   
     9     5    11 1   
    10     6     7 1   
    11     6     9 1   
    12     7     8 2   
    13     9    10 2   
    14    10    11 1   
    15    11    14 1   
@<TRIPOS>SUBSTRUCTURE
     1 AZA         1 TEMP              0 ****  ****    0 ROOT
