@<TRIPOS>MOLECULE
AZA
   14    15     1     0     0
SMALL
No Charge or Current Charge


@<TRIPOS>ATOM
      1 N1           0.7180    -0.0140    -1.5690 ns         1 AZA      -0.483500
      2 C2          -0.6310     0.0170    -1.8110 c          1 AZA       0.637000
      3 O2          -1.0990     0.0380    -2.9320 o          1 AZA      -0.531000
      4 N3          -1.4090     0.0230    -0.6840 ns         1 AZA      -0.500600
      5 C4          -0.8810     0.0000     0.5910 cc         1 AZA       0.025600
      6 C5           0.4530    -0.0300     0.8160 cd         1 AZA       0.073500
      7 C6           1.3770    -0.0390    -0.3550 c          1 AZA       0.532500
      8 O6           2.5970    -0.0650    -0.2870 o          1 AZA      -0.478000
      9 N7           0.6760    -0.0480     2.1820 nd         1 AZA      -0.258000
     10 N8          -0.4830    -0.0290     2.8030 nc         1 AZA      -0.177800
     11 N9          -1.4520     0.0010     1.8340 na         1 AZA      -0.048200
     12 HN1          1.3050    -0.0190    -2.3890 hn         1 AZA       0.350500
     13 HN3         -2.4120     0.0460    -0.8470 hn         1 AZA       0.471000
     14 HN9         -2.4400     0.0200     2.0670 hn         1 AZA       0.388000
@<TRIPOS>BOND
     1     1     2 1   
     2     1     7 1   
     3     1    12 1   
     4     2     3 2   
     5     2     4 1   
     6     4     5 1   
     7     4    13 1   
     8     5     6 2   
     9     5    11 1   
    10     6     7 1   
    11     6     9 1   
    12     7     8 2   
    13     9    10 2   
    14    10    11 1   
    15    11    14 1   
@<TRIPOS>SUBSTRUCTURE
     1 AZA         1 TEMP              0 ****  ****    0 ROOT
