@<TRIPOS>MOLECULE
AZB
   34    35     1     0     0
SMALL
No Charge or Current Charge


@<TRIPOS>ATOM
      1 C1           5.7430     0.6230    -1.3690 c3         1 AZB      -0.084100
      2 N2          -1.1130     0.0090    -0.5370 ne         1 AZB      -0.195400
      3 C3           6.0090     0.4920     1.1700 c3         1 AZB      -0.084100
      4 C4          -3.2040     1.2340    -0.2460 ca         1 AZB      -0.032500
      5 C5          -4.6030     1.2390    -0.0960 ca         1 AZB      -0.189000
      6 C6          -5.3130     0.0290    -0.0850 ca         1 AZB       0.161100
      7 C7          -4.6290    -1.1890    -0.2230 ca         1 AZB      -0.189000
      8 C8          -3.2290    -1.1960    -0.3720 ca         1 AZB      -0.032500
      9 C9          -2.5110     0.0160    -0.3810 ca         1 AZB       0.036400
     10 C11          3.0560    -1.2840     0.1020 ca         1 AZB      -0.118000
     11 C12          1.6570    -1.2760     0.2480 ca         1 AZB      -0.074500
     12 C13          0.9660    -0.0590     0.3800 ca         1 AZB       0.076400
     13 C14          1.6820     1.1510     0.3700 ca         1 AZB      -0.074500
     14 C15          3.0810     1.1440     0.2230 ca         1 AZB      -0.118000
     15 C16          3.7800    -0.0740     0.0870 ca         1 AZB      -0.054300
     16 C17          5.3020    -0.0920    -0.0730 c3         1 AZB      -0.019400
     17 H1           6.8270     0.5300    -1.5120 hc         1 AZB       0.036033
     18 H1A          5.2470     0.1780    -2.2400 hc         1 AZB       0.036033
     19 H1B          5.4930     1.6900    -1.3390 hc         1 AZB       0.036033
     20 HO1         -6.9910    -0.8800     0.0450 ho         1 AZB       0.469000
     21 H3           5.7690     1.5540     1.3010 hc         1 AZB       0.036033
     22 H3A          5.6990    -0.0450     2.0750 hc         1 AZB       0.036033
     23 H3B          7.0980     0.3970     1.0760 hc         1 AZB       0.036033
     24 H4          -2.6560     2.1740    -0.2550 ha         1 AZB       0.131500
     25 H5          -5.1340     2.1810     0.0090 ha         1 AZB       0.124000
     26 H7          -5.1710    -2.1320    -0.2160 ha         1 AZB       0.124000
     27 H8          -2.7000    -2.1400    -0.4800 ha         1 AZB       0.131500
     28 H11          3.5750    -2.2340    -0.0000 ha         1 AZB       0.114500
     29 H12          1.1090    -2.2150     0.2590 ha         1 AZB       0.128500
     30 H14          1.1530     2.0950     0.4740 ha         1 AZB       0.128500
     31 H15          3.6180     2.0890     0.2160 ha         1 AZB       0.114500
     32 H17          5.6350    -1.1340    -0.1620 hc         1 AZB       0.049700
     33 N1          -0.4410    -0.0530     0.5340 nf         1 AZB      -0.210400
     34 O1          -6.6670     0.0460     0.0600 oh         1 AZB      -0.528100
@<TRIPOS>BOND
     1     1    16 1   
     2     1    17 1   
     3     1    18 1   
     4     1    19 1   
     5     2     9 1   
     6     2    33 2   
     7     3    16 1   
     8     3    21 1   
     9     3    22 1   
    10     3    23 1   
    11     4     5 ar  
    12     4     9 ar  
    13     4    24 1   
    14     5     6 ar  
    15     5    25 1   
    16     6     7 ar  
    17     6    34 1   
    18     7     8 ar  
    19     7    26 1   
    20     8     9 ar  
    21     8    27 1   
    22    10    11 ar  
    23    10    15 ar  
    24    10    28 1   
    25    11    12 ar  
    26    11    29 1   
    27    12    13 ar  
    28    12    33 1   
    29    13    14 ar  
    30    13    30 1   
    31    14    15 ar  
    32    14    31 1   
    33    15    16 1   
    34    16    32 1   
    35    20    34 1   
@<TRIPOS>SUBSTRUCTURE
     1 AZB         1 TEMP              0 ****  ****    0 ROOT
