@<TRIPOS>MOLECULE
AZB
   34    35     1     0     0
SMALL
abcg2


@<TRIPOS>ATOM
      1 C1           5.8290     0.8240    -1.1710 c3         1 AZB      -0.084100
      2 N2          -1.1030     0.4540    -0.1540 ne         1 AZB      -0.195400
      3 C3           5.7800     0.4140     1.3160 c3         1 AZB      -0.084100
      4 C4          -3.2820     1.3710    -0.3290 ca         1 AZB      -0.032500
      5 C5          -4.6610     1.2860    -0.3040 ca         1 AZB      -0.189000
      6 C6          -5.2720     0.0600    -0.0450 ca         1 AZB       0.161100
      7 C7          -4.4820    -1.0720     0.1810 ca         1 AZB      -0.189000
      8 C8          -3.1070    -0.9800     0.1470 ca         1 AZB      -0.032500
      9 C9          -2.4870     0.2470    -0.1100 ca         1 AZB       0.036400
     10 C11          3.1530    -1.4010    -0.1240 ca         1 AZB      -0.118000
     11 C12          1.7700    -1.5000    -0.1130 ca         1 AZB      -0.074500
     12 C13          0.9830    -0.3540    -0.0680 ca         1 AZB       0.076400
     13 C14          1.6040     0.8980    -0.0200 ca         1 AZB      -0.074500
     14 C15          2.9830     0.9830    -0.0200 ca         1 AZB      -0.118000
     15 C16          3.7840    -0.1620    -0.0750 ca         1 AZB      -0.054300
     16 C17          5.2900    -0.0660    -0.0510 c3         1 AZB      -0.019400
     17 H1           6.9200     0.8020    -1.1800 hc         1 AZB       0.036033
     18 H1A          5.4790     0.4900    -2.1490 hc         1 AZB       0.036033
     19 H1B          5.5240     1.8640    -1.0440 hc         1 AZB       0.036033
     20 HO1         -6.9220    -0.8700     0.1860 ho         1 AZB       0.469000
     21 H3           5.4290     1.4250     1.5300 hc         1 AZB       0.036033
     22 H3A          5.4290    -0.2390     2.1160 hc         1 AZB       0.036033
     23 H3B          6.8710     0.4280     1.3500 hc         1 AZB       0.036033
     24 H4          -2.8020     2.3220    -0.5240 ha         1 AZB       0.131500
     25 H5          -5.2680     2.1650    -0.4790 ha         1 AZB       0.124000
     26 H7          -4.9500    -2.0270     0.3900 ha         1 AZB       0.124000
     27 H8          -2.5070    -1.8610     0.3280 ha         1 AZB       0.131500
     28 H11          3.7520    -2.3030    -0.1660 ha         1 AZB       0.114500
     29 H12          1.2870    -2.4680    -0.1440 ha         1 AZB       0.128500
     30 H14          1.0040     1.7970     0.0270 ha         1 AZB       0.128500
     31 H15          3.4440     1.9630     0.0290 ha         1 AZB       0.114500
     32 H17          5.6810    -1.0750    -0.2120 hc         1 AZB       0.049700
     33 N1          -0.4050    -0.5670    -0.0560 nf         1 AZB      -0.210400
     34 O1          -6.6120     0.0190    -0.0200 oh         1 AZB      -0.528100
@<TRIPOS>BOND
     1     1    16 1   
     2     1    17 1   
     3     1    18 1   
     4     1    19 1   
     5     2     9 1   
     6     2    33 2   
     7     3    16 1   
     8     3    21 1   
     9     3    22 1   
    10     3    23 1   
    11     4     5 ar  
    12     4     9 ar  
    13     4    24 1   
    14     5     6 ar  
    15     5    25 1   
    16     6     7 ar  
    17     6    34 1   
    18     7     8 ar  
    19     7    26 1   
    20     8     9 ar  
    21     8    27 1   
    22    10    11 ar  
    23    10    15 ar  
    24    10    28 1   
    25    11    12 ar  
    26    11    29 1   
    27    12    13 ar  
    28    12    33 1   
    29    13    14 ar  
    30    13    30 1   
    31    14    15 ar  
    32    14    31 1   
    33    15    16 1   
    34    16    32 1   
    35    20    34 1   
@<TRIPOS>SUBSTRUCTURE
     1 AZB         1 TEMP              0 ****  ****    0 ROOT
