@<TRIPOS>MOLECULE
AZC
   34    34     1     0     0
SMALL
No Charge or Current Charge


@<TRIPOS>ATOM
      1 C1           0.4850     0.3680    -0.2690 c6         1 AZC       0.307700
      2 C2           1.6420    -0.1480    -1.1910 c6         1 AZC       0.100300
      3 O2           2.9320     0.3950    -0.8180 oh         1 AZC      -0.714000
      4 C3           1.3200     0.2350    -2.6630 c6         1 AZC       0.139300
      5 O3           2.3490    -0.2580    -3.5390 oh         1 AZC      -0.666000
      6 C4          -0.0730    -0.3200    -3.0780 c6         1 AZC       0.143300
      7 O4          -0.3690     0.0750    -4.4310 oh         1 AZC      -0.714000
      8 C5          -1.1480     0.1830    -2.0630 c6         1 AZC       0.179300
      9 O5          -0.7630    -0.1960    -0.7130 os         1 AZC      -0.465000
     10 C6          -2.5680    -0.4070    -2.3590 c3         1 AZC       0.172600
     11 O6          -3.5720     0.0050    -1.4080 oh         1 AZC      -0.704000
     12 N1           0.6580    -0.0770     1.1090 ns         1 AZC      -0.516900
     13 C7           0.0620     0.5140     2.1880 c          1 AZC       0.664100
     14 O7          -0.5650     1.5560     2.1120 o          1 AZC      -0.548100
     15 N2           0.2670    -0.1840     3.3400 ns         1 AZC      -0.499500
     16 C8          -0.1640     0.0770     4.6140 c          1 AZC       0.617100
     17 C9           0.2320    -0.9790     5.6370 c3         1 AZC      -0.188100
     18 O8          -0.8160     1.0630     4.9230 o          1 AZC      -0.512100
     19 H1           0.4390     1.4690    -0.3000 h2         1 AZC       0.092700
     20 H2           1.6670    -1.2460    -1.1180 h1         1 AZC       0.047700
     21 HO2          3.0550     0.2300     0.1480 ho         1 AZC       0.515000
     22 H3           1.2810     1.3340    -2.7230 h1         1 AZC       0.060700
     23 HO3          3.1850    -0.1360    -3.0280 ho         1 AZC       0.466000
     24 H4          -0.0370    -1.4190    -3.0150 h1         1 AZC       0.050700
     25 HO4          0.4880    -0.0230    -4.9150 ho         1 AZC       0.525000
     26 H5          -1.2170     1.2800    -2.1180 h1         1 AZC       0.068700
     27 H61         -2.8650    -0.0970    -3.3700 h1         1 AZC       0.034700
     28 H62         -2.4850    -1.5020    -2.3680 h1         1 AZC       0.034700
     29 HO6         -4.4020    -0.4710    -1.6420 ho         1 AZC       0.503000
     30 HN1          1.1190    -0.9630     1.2620 hn         1 AZC       0.302500
     31 HN2          0.8030    -1.0320     3.2440 hn         1 AZC       0.307500
     32 H91         -0.1300    -0.7460     6.6450 hc         1 AZC       0.065033
     33 H92         -0.1240    -1.9580     5.2970 hc         1 AZC       0.065033
     34 H93          1.3210    -1.1060     5.6180 hc         1 AZC       0.065033
@<TRIPOS>BOND
     1     1     2 1   
     2     1     9 1   
     3     1    12 1   
     4     1    19 1   
     5     2     3 1   
     6     2     4 1   
     7     2    20 1   
     8     3    21 1   
     9     4     5 1   
    10     4     6 1   
    11     4    22 1   
    12     5    23 1   
    13     6     7 1   
    14     6     8 1   
    15     6    24 1   
    16     7    25 1   
    17     8     9 1   
    18     8    10 1   
    19     8    26 1   
    20    10    11 1   
    21    10    27 1   
    22    10    28 1   
    23    11    29 1   
    24    12    13 1   
    25    12    30 1   
    26    13    14 2   
    27    13    15 1   
    28    15    16 1   
    29    15    31 1   
    30    16    17 1   
    31    16    18 2   
    32    17    32 1   
    33    17    33 1   
    34    17    34 1   
@<TRIPOS>SUBSTRUCTURE
     1 AZC         1 TEMP              0 ****  ****    0 ROOT
