@<TRIPOS>MOLECULE
AZC
   34    34     1     0     0
SMALL
abcg2


@<TRIPOS>ATOM
      1 C1           0.4140     0.2360    -0.2560 c6         1 AZC       0.307700
      2 C2           1.5910    -0.1780    -1.1430 c6         1 AZC       0.100300
      3 O2           2.7840     0.4450    -0.7410 oh         1 AZC      -0.714000
      4 C3           1.3080     0.2490    -2.5760 c6         1 AZC       0.139300
      5 O3           2.2810    -0.2310    -3.4710 oh         1 AZC      -0.666000
      6 C4          -0.0450    -0.2770    -3.0410 c6         1 AZC       0.143300
      7 O4          -0.3900     0.2430    -4.3000 oh         1 AZC      -0.714000
      8 C5          -1.1250     0.1380    -2.0410 c6         1 AZC       0.179300
      9 O5          -0.7800    -0.3230    -0.7510 os         1 AZC      -0.465000
     10 C6          -2.4770    -0.4420    -2.3970 c3         1 AZC       0.172600
     11 O6          -3.4350     0.0450    -1.4870 oh         1 AZC      -0.704000
     12 N1           0.6160    -0.2220     1.0770 ns         1 AZC      -0.516900
     13 C7           0.1030     0.4380     2.1540 c          1 AZC       0.664100
     14 O7          -0.4330     1.5220     2.0890 o          1 AZC      -0.548100
     15 N2           0.2930    -0.2640     3.3380 ns         1 AZC      -0.499500
     16 C8          -0.1490     0.1000     4.5950 c          1 AZC       0.617100
     17 C9           0.2640    -0.8820     5.6590 c3         1 AZC      -0.188100
     18 O8          -0.7940     1.0970     4.8190 o          1 AZC      -0.512100
     19 H1           0.3460     1.3310    -0.2410 h2         1 AZC       0.092700
     20 H2           1.6810    -1.2750    -1.1120 h1         1 AZC       0.047700
     21 HO2          3.0830     0.0430     0.0810 ho         1 AZC       0.515000
     22 H3           1.2620     1.3510    -2.6000 h1         1 AZC       0.060700
     23 HO3          3.1150     0.2110    -3.2820 ho         1 AZC       0.466000
     24 H4          -0.0020    -1.3780    -3.0660 h1         1 AZC       0.050700
     25 HO4          0.2830    -0.0280    -4.9330 ho         1 AZC       0.525000
     26 H5          -1.1960     1.2390    -2.0410 h1         1 AZC       0.068700
     27 H61         -2.7150    -0.1570    -3.4270 h1         1 AZC       0.034700
     28 H62         -2.4110    -1.5390    -2.3720 h1         1 AZC       0.034700
     29 HO6         -4.2990    -0.2650    -1.7740 ho         1 AZC       0.503000
     30 HN1          0.8990    -1.1860     1.1870 hn         1 AZC       0.302500
     31 HN2          0.8110    -1.1300     3.2880 hn         1 AZC       0.307500
     32 H91         -0.1520    -0.5920     6.6190 hc         1 AZC       0.065033
     33 H92         -0.0750    -1.8890     5.4140 hc         1 AZC       0.065033
     34 H93          1.3520    -0.9150     5.7410 hc         1 AZC       0.065033
@<TRIPOS>BOND
     1     1     2 1   
     2     1     9 1   
     3     1    12 1   
     4     1    19 1   
     5     2     3 1   
     6     2     4 1   
     7     2    20 1   
     8     3    21 1   
     9     4     5 1   
    10     4     6 1   
    11     4    22 1   
    12     5    23 1   
    13     6     7 1   
    14     6     8 1   
    15     6    24 1   
    16     7    25 1   
    17     8     9 1   
    18     8    10 1   
    19     8    26 1   
    20    10    11 1   
    21    10    27 1   
    22    10    28 1   
    23    11    29 1   
    24    12    13 1   
    25    12    30 1   
    26    13    14 2   
    27    13    15 1   
    28    15    16 1   
    29    15    31 1   
    30    16    17 1   
    31    16    18 2   
    32    17    32 1   
    33    17    33 1   
    34    17    34 1   
@<TRIPOS>SUBSTRUCTURE
     1 AZC         1 TEMP              0 ****  ****    0 ROOT
