@<TRIPOS>MOLECULE
AZE
   50    50     1     0     0
SMALL
No Charge or Current Charge


@<TRIPOS>ATOM
      1 C1          29.5630    21.4490    44.9130 c6         1 AZE       0.001200
      2 C2          29.2410    21.2970    43.3970 c6         1 AZE      -0.068400
      3 C3          30.4740    20.8670    42.5830 c6         1 AZE      -0.071400
      4 C4          30.9450    19.4720    43.0350 c6         1 AZE      -0.041200
      5 C5          31.0320    19.3050    44.5540 c2         1 AZE      -0.099400
      6 C6          30.3920    20.1750    45.4150 ce         1 AZE      -0.080200
      7 C7          30.5230    20.0840    46.8820 ce         1 AZE      -0.161000
      8 C8          31.6930    19.8880    47.5580 cf         1 AZE      -0.186000
      9 C9          31.8780    19.7990    49.0090 cf         1 AZE      -0.064200
     10 C10         33.0600    19.3370    49.5150 ce         1 AZE      -0.179000
     11 C11         33.4240    19.1790    50.9320 ce         1 AZE      -0.176000
     12 C12         34.6530    18.7700    51.3590 cf         1 AZE      -0.169000
     13 C13         35.0890    18.5810    52.7450 cf         1 AZE      -0.087200
     14 C14         36.3520    18.1590    53.0070 c2         1 AZE      -0.203200
     15 C15         36.9770    17.9100    54.3660 c3         1 AZE      -0.056900
     16 C16         28.1810    21.6480    45.6610 c3         1 AZE      -0.081600
     17 C17         30.3680    22.7970    45.1490 c3         1 AZE      -0.081600
     18 C18         31.8570    18.0470    44.9250 c3         1 AZE      -0.056900
     19 C19         30.7420    20.3000    49.8970 c3         1 AZE      -0.054900
     20 C20         34.0820    18.8790    53.8520 c3         1 AZE      -0.053900
     21 H21         28.4480    20.5480    43.2580 hc         1 AZE       0.041200
     22 H22         28.8410    22.2380    42.9940 hc         1 AZE       0.041200
     23 H31         30.2290    20.8440    41.5120 hc         1 AZE       0.041200
     24 H32         31.2880    21.5950    42.6970 hc         1 AZE       0.041200
     25 H41         30.2570    18.7130    42.6380 hc         1 AZE       0.044700
     26 H42         31.9230    19.2640    42.5790 hc         1 AZE       0.044700
     27 H7          29.6040    20.2030    47.4520 ha         1 AZE       0.174000
     28 H8          32.5980    19.7820    46.9580 ha         1 AZE       0.173000
     29 H10         33.8270    19.0330    48.8010 ha         1 AZE       0.168000
     30 H11         32.6540    19.3910    51.6730 ha         1 AZE       0.173000
     31 H12         35.4000    18.5590    50.5910 ha         1 AZE       0.168000
     32 H14         37.0290    17.9620    52.1730 ha         1 AZE       0.168000
     33 H151        38.0130    17.5650    54.2650 hc         1 AZE       0.040033
     34 H152        36.9900    18.8250    54.9700 hc         1 AZE       0.040033
     35 H153        36.4250    17.1420    54.9220 hc         1 AZE       0.040033
     36 H161        28.3170    21.9180    46.7150 hc         1 AZE       0.034200
     37 H162        27.5880    22.4490    45.2010 hc         1 AZE       0.034200
     38 H163        27.5790    20.7320    45.6280 hc         1 AZE       0.034200
     39 H171        30.5280    22.9780    46.2190 hc         1 AZE       0.034200
     40 H172        31.3580    22.7640    44.6800 hc         1 AZE       0.034200
     41 H173        29.8350    23.6650    44.7430 hc         1 AZE       0.034200
     42 H181        31.6450    17.7020    45.9440 hc         1 AZE       0.041033
     43 H182        31.6270    17.2090    44.2560 hc         1 AZE       0.041033
     44 H183        32.9330    18.2460    44.8520 hc         1 AZE       0.041033
     45 H191        31.1060    20.7150    50.8430 hc         1 AZE       0.041367
     46 H192        30.1760    21.1100    49.4230 hc         1 AZE       0.041367
     47 H193        30.0390    19.4920    50.1330 hc         1 AZE       0.041367
     48 H201        34.4930    18.7340    54.8570 hc         1 AZE       0.040033
     49 H202        33.7350    19.9180    53.7990 hc         1 AZE       0.040033
     50 H203        33.2040    18.2280    53.7700 hc         1 AZE       0.040033
@<TRIPOS>BOND
     1     1     2 1   
     2     1     6 1   
     3     1    16 1   
     4     1    17 1   
     5     2     3 1   
     6     2    21 1   
     7     2    22 1   
     8     3     4 1   
     9     3    23 1   
    10     3    24 1   
    11     4     5 1   
    12     4    25 1   
    13     4    26 1   
    14     5     6 2   
    15     5    18 1   
    16     6     7 1   
    17     7     8 2   
    18     7    27 1   
    19     8     9 1   
    20     8    28 1   
    21     9    10 2   
    22     9    19 1   
    23    10    11 1   
    24    10    29 1   
    25    11    12 2   
    26    11    30 1   
    27    12    13 1   
    28    12    31 1   
    29    13    14 2   
    30    13    20 1   
    31    14    15 1   
    32    14    32 1   
    33    15    33 1   
    34    15    34 1   
    35    15    35 1   
    36    16    36 1   
    37    16    37 1   
    38    16    38 1   
    39    17    39 1   
    40    17    40 1   
    41    17    41 1   
    42    18    42 1   
    43    18    43 1   
    44    18    44 1   
    45    19    45 1   
    46    19    46 1   
    47    19    47 1   
    48    20    48 1   
    49    20    49 1   
    50    20    50 1   
@<TRIPOS>SUBSTRUCTURE
     1 AZE         1 TEMP              0 ****  ****    0 ROOT
