@<TRIPOS>MOLECULE
AZE
   50    50     1     0     0
SMALL
bcc


@<TRIPOS>ATOM
      1 C1          29.7230    21.4980    44.9500 c6         1 AZE       0.001200
      2 C2          29.4000    21.3980    43.4550 c6         1 AZE      -0.068400
      3 C3          30.5630    20.8580    42.6470 c6         1 AZE      -0.071400
      4 C4          30.8840    19.4500    43.1110 c6         1 AZE      -0.041200
      5 C5          30.9140    19.2970    44.6080 c2         1 AZE      -0.099400
      6 C6          30.4220    20.2300    45.4450 ce         1 AZE      -0.080200
      7 C7          30.5350    20.1060    46.9050 ce         1 AZE      -0.111000
      8 C8          31.6760    19.8560    47.5660 cf         1 AZE      -0.136000
      9 C9          31.8060    19.7190    49.0080 cf         1 AZE      -0.064200
     10 C10         33.0330    19.4440    49.5130 ce         1 AZE      -0.129000
     11 C11         33.3870    19.2420    50.8950 ce         1 AZE      -0.126000
     12 C12         34.6430    18.9540    51.2900 cf         1 AZE      -0.119000
     13 C13         35.0690    18.7210    52.6600 cf         1 AZE      -0.087200
     14 C14         36.3590    18.4210    52.8950 c2         1 AZE      -0.153200
     15 C15         36.9740    18.1400    54.2310 c3         1 AZE      -0.056900
     16 C16         28.3970    21.7170    45.6900 c3         1 AZE      -0.081600
     17 C17         30.6320    22.7050    45.2180 c3         1 AZE      -0.081600
     18 C18         31.5040    17.9850    45.0410 c3         1 AZE      -0.056900
     19 C19         30.5740    19.8770    49.8460 c3         1 AZE      -0.054900
     20 C20         34.0440    18.8150    53.7510 c3         1 AZE      -0.053900
     21 H21         28.5400    20.7320    43.3210 hc         1 AZE       0.041200
     22 H22         29.0930    22.3840    43.0930 hc         1 AZE       0.041200
     23 H31         30.3250    20.8590    41.5810 hc         1 AZE       0.041200
     24 H32         31.4390    21.5030    42.7660 hc         1 AZE       0.041200
     25 H41         30.1490    18.7450    42.7030 hc         1 AZE       0.044700
     26 H42         31.8480    19.1240    42.7050 hc         1 AZE       0.044700
     27 H7          29.6290    20.2660    47.4820 ha         1 AZE       0.124000
     28 H8          32.5930    19.7440    46.9940 ha         1 AZE       0.123000
     29 H10         33.8510    19.3540    48.8030 ha         1 AZE       0.118000
     30 H11         32.6050    19.3150    51.6420 ha         1 AZE       0.123000
     31 H12         35.4190    18.8820    50.5310 ha         1 AZE       0.118000
     32 H14         37.0250    18.3670    52.0380 ha         1 AZE       0.118000
     33 H151        38.0560    18.0520    54.1480 hc         1 AZE       0.040033
     34 H152        36.7640    18.9240    54.9590 hc         1 AZE       0.040033
     35 H153        36.6060    17.2040    54.6600 hc         1 AZE       0.040033
     36 H161        28.5370    21.9590    46.7440 hc         1 AZE       0.034200
     37 H162        27.8580    22.5530    45.2390 hc         1 AZE       0.034200
     38 H163        27.7560    20.8360    45.6260 hc         1 AZE       0.034200
     39 H171        30.8610    22.7970    46.2810 hc         1 AZE       0.034200
     40 H172        31.5810    22.6260    44.6850 hc         1 AZE       0.034200
     41 H173        30.1460    23.6300    44.8990 hc         1 AZE       0.034200
     42 H181        31.2990    17.7380    46.0800 hc         1 AZE       0.041033
     43 H182        31.1100    17.1800    44.4150 hc         1 AZE       0.041033
     44 H183        32.5890    17.9740    44.9050 hc         1 AZE       0.041033
     45 H191        30.7730    19.8120    50.9130 hc         1 AZE       0.041367
     46 H192        30.0980    20.8420    49.6590 hc         1 AZE       0.041367
     47 H193        29.8350    19.1100    49.6020 hc         1 AZE       0.041367
     48 H201        34.4690    18.6260    54.7350 hc         1 AZE       0.040033
     49 H202        33.5800    19.8030    53.7720 hc         1 AZE       0.040033
     50 H203        33.2400    18.0920    53.5930 hc         1 AZE       0.040033
@<TRIPOS>BOND
     1     1     2 1   
     2     1     6 1   
     3     1    16 1   
     4     1    17 1   
     5     2     3 1   
     6     2    21 1   
     7     2    22 1   
     8     3     4 1   
     9     3    23 1   
    10     3    24 1   
    11     4     5 1   
    12     4    25 1   
    13     4    26 1   
    14     5     6 2   
    15     5    18 1   
    16     6     7 1   
    17     7     8 2   
    18     7    27 1   
    19     8     9 1   
    20     8    28 1   
    21     9    10 2   
    22     9    19 1   
    23    10    11 1   
    24    10    29 1   
    25    11    12 2   
    26    11    30 1   
    27    12    13 1   
    28    12    31 1   
    29    13    14 2   
    30    13    20 1   
    31    14    15 1   
    32    14    32 1   
    33    15    33 1   
    34    15    34 1   
    35    15    35 1   
    36    16    36 1   
    37    16    37 1   
    38    16    38 1   
    39    17    39 1   
    40    17    40 1   
    41    17    41 1   
    42    18    42 1   
    43    18    43 1   
    44    18    44 1   
    45    19    45 1   
    46    19    46 1   
    47    19    47 1   
    48    20    48 1   
    49    20    49 1   
    50    20    50 1   
@<TRIPOS>SUBSTRUCTURE
     1 AZE         1 TEMP              0 ****  ****    0 ROOT
