@<TRIPOS>MOLECULE
AZF
   22    22     1     0     0
SMALL
bcc


@<TRIPOS>ATOM
      1 O4           0.9040    -2.0240     3.4730 oh         1 AZF      -0.603800
      2 C4           0.3340    -1.6220     2.2510 c6         1 AZF       0.158100
      3 C3           1.3680    -1.0000     1.3210 c6         1 AZF       0.106100
      4 O3           1.8360     0.1820     1.9320 oh         1 AZF      -0.604800
      5 C2           0.7360    -0.7350    -0.0400 c6         1 AZF       0.110800
      6 N            0.2270    -1.9910    -0.5600 n7         1 AZF      -0.578000
      7 C5          -0.2920    -2.8410     1.5770 c6         1 AZF       0.120500
      8 C6          -1.4080    -3.4390     2.4250 c3         1 AZF       0.133400
      9 O6          -2.0070    -4.5610     1.8120 oh         1 AZF      -0.597800
     10 N2          -0.8500    -2.4130     0.3040 n7         1 AZF      -0.580000
     11 H4           1.3470    -1.2610     3.8580 ho         1 AZF       0.423000
     12 HA          -0.4650    -0.8790     2.4110 h1         1 AZF       0.054700
     13 H3           2.1830    -1.7260     1.1890 h1         1 AZF       0.051700
     14 H5           0.5010    -3.5970     1.4380 h1         1 AZF       0.047700
     15 HB           2.6450     0.4560     1.4890 ho         1 AZF       0.411000
     16 H2C1        -0.0470     0.0290     0.0710 h1         1 AZF       0.049700
     17 H2C2         1.4880    -0.3520    -0.7350 h1         1 AZF       0.049700
     18 H           -0.2100    -1.8000    -1.4540 hn         1 AZF       0.355800
     19 H2          -1.2440    -3.2340    -0.1400 hn         1 AZF       0.368800
     20 H6C1        -2.1960    -2.6920     2.5500 h1         1 AZF       0.061700
     21 H6C2        -1.0230    -3.6820     3.4200 h1         1 AZF       0.061700
     22 H6          -1.3830    -5.2920     1.8500 ho         1 AZF       0.399000
@<TRIPOS>BOND
     1     1     2 1   
     2     1    11 1   
     3     2     3 1   
     4     2     7 1   
     5     2    12 1   
     6     3     4 1   
     7     3     5 1   
     8     3    13 1   
     9     4    15 1   
    10     5     6 1   
    11     5    16 1   
    12     5    17 1   
    13     6    10 1   
    14     6    18 1   
    15     7     8 1   
    16     7    10 1   
    17     7    14 1   
    18     8     9 1   
    19     8    20 1   
    20     8    21 1   
    21     9    22 1   
    22    10    19 1   
@<TRIPOS>SUBSTRUCTURE
     1 AZF         1 TEMP              0 ****  ****    0 ROOT
