@<TRIPOS>MOLECULE
AZF
   22    22     1     0     0
SMALL
No Charge or Current Charge


@<TRIPOS>ATOM
      1 O4           0.8850    -1.9490     3.5700 oh         1 AZF      -0.666000
      2 C4           0.3050    -1.6050     2.2980 c6         1 AZF       0.181300
      3 C3           1.3900    -0.9820     1.3750 c6         1 AZF       0.129300
      4 O3           1.9180     0.2290     1.9560 oh         1 AZF      -0.667000
      5 C2           0.7820    -0.7260    -0.0350 c6         1 AZF       0.110800
      6 N            0.2040    -1.9740    -0.6180 n7         1 AZF      -0.633200
      7 C5          -0.3360    -2.8400     1.5870 c6         1 AZF       0.120500
      8 C6          -1.4650    -3.4950     2.4490 c3         1 AZF       0.156600
      9 O6          -2.0640    -4.6360     1.7980 oh         1 AZF      -0.660000
     10 N2          -0.8870    -2.4530     0.2470 n7         1 AZF      -0.635200
     11 H4           1.4820    -1.1960     3.7830 ho         1 AZF       0.462000
     12 HA          -0.4860    -0.8530     2.4460 h1         1 AZF       0.054700
     13 H3           2.2000    -1.7190     1.2580 h1         1 AZF       0.051700
     14 H5           0.4480    -3.5990     1.4410 h1         1 AZF       0.047700
     15 HB           2.6420     0.5400     1.3660 ho         1 AZF       0.450000
     16 H2C1         0.0010     0.0480     0.0320 h1         1 AZF       0.049700
     17 H2C2         1.5680    -0.3470    -0.7050 h1         1 AZF       0.049700
     18 H           -0.1430    -1.7210    -1.5620 hn         1 AZF       0.411000
     19 H2          -1.3340    -3.3130    -0.1240 hn         1 AZF       0.424000
     20 H6C1        -2.2290    -2.7320     2.6500 h1         1 AZF       0.061700
     21 H6C2        -1.0410    -3.7910     3.4190 h1         1 AZF       0.061700
     22 H6          -1.3970    -5.3590     1.8100 ho         1 AZF       0.438000
@<TRIPOS>BOND
     1     1     2 1   
     2     1    11 1   
     3     2     3 1   
     4     2     7 1   
     5     2    12 1   
     6     3     4 1   
     7     3     5 1   
     8     3    13 1   
     9     4    15 1   
    10     5     6 1   
    11     5    16 1   
    12     5    17 1   
    13     6    10 1   
    14     6    18 1   
    15     7     8 1   
    16     7    10 1   
    17     7    14 1   
    18     8     9 1   
    19     8    20 1   
    20     8    21 1   
    21     9    22 1   
    22    10    19 1   
@<TRIPOS>SUBSTRUCTURE
     1 AZF         1 TEMP              0 ****  ****    0 ROOT
