@<TRIPOS>MOLECULE
AZG
   15    16     1     0     0
SMALL
No Charge or Current Charge


@<TRIPOS>ATOM
      1 C4          -0.9520     0.0670    -0.4670 ca         1 AZG       0.256000
      2 N3          -1.4520     0.1320     0.7790 nb         1 AZG      -0.212000
      3 C2          -0.5360     0.0770     1.7660 ca         1 AZG       0.409900
      4 N2          -1.0140     0.1400     3.0360 nv         1 AZG      -1.049900
      5 N1           0.7990    -0.0350     1.6480 nb         1 AZG      -0.268000
      6 C6           1.2730    -0.0980     0.3910 ca         1 AZG       0.438300
      7 O6           2.6150    -0.2120     0.2220 oh         1 AZG      -0.619300
      8 C5           0.3850    -0.0470    -0.6920 ca         1 AZG      -0.342200
      9 N7           0.5690    -0.0880    -2.0530 na         1 AZG      -0.036400
     10 N8          -0.6790     0.0020    -2.6510 nc         1 AZG      -0.136400
     11 N9          -1.6010     0.0960    -1.6940 nd         1 AZG      -0.306000
     12 HN21        -0.3920    -0.1160     3.8000 hn         1 AZG       0.500000
     13 HN22        -2.0100     0.0020     3.1920 hn         1 AZG       0.500000
     14 HO6          2.7860    -0.2430    -0.7390 ho         1 AZG       0.481000
     15 HN7          1.4220    -0.1690    -2.6030 hn         1 AZG       0.383000
@<TRIPOS>BOND
     1     1     2 ar  
     2     1     8 ar  
     3     1    11 1   
     4     2     3 ar  
     5     3     4 1   
     6     3     5 ar  
     7     4    12 1   
     8     4    13 1   
     9     5     6 ar  
    10     6     7 1   
    11     6     8 ar  
    12     7    14 1   
    13     8     9 1   
    14     9    10 1   
    15     9    15 1   
    16    10    11 2   
@<TRIPOS>SUBSTRUCTURE
     1 AZG         1 TEMP              0 ****  ****    0 ROOT
