@<TRIPOS>MOLECULE
AZG
   15    16     1     0     0
SMALL
bcc


@<TRIPOS>ATOM
      1 C4          -0.9290     0.0580    -0.4590 ca         1 AZG       0.584300
      2 N3          -1.4680     0.1140     0.7580 nb         1 AZG      -0.738000
      3 C2          -0.5710     0.0580     1.7290 ca         1 AZG       0.935900
      4 N2          -1.0020     0.1430     3.0030 nv         1 AZG      -0.939500
      5 N1           0.7750    -0.0490     1.5810 nb         1 AZG      -0.794000
      6 C6           1.2940    -0.1040     0.3890 ca         1 AZG       0.766600
      7 O6           2.6080    -0.2080     0.3180 oh         1 AZG      -0.580300
      8 C5           0.4300    -0.0510    -0.7200 ca         1 AZG      -0.472800
      9 N7           0.4980    -0.0750    -2.0730 na         1 AZG       0.013900
     10 N8          -0.7050     0.0100    -2.5880 nc         1 AZG      -0.136400
     11 N9          -1.5830     0.0920    -1.6500 nd         1 AZG      -0.306000
     12 HN21        -0.3720    -0.1140     3.7430 hn         1 AZG       0.444800
     13 HN22        -1.9840     0.0330     3.1830 hn         1 AZG       0.444800
     14 HO6          2.9260    -0.2480    -0.5920 ho         1 AZG       0.442000
     15 HN7          1.2960    -0.1510    -2.6870 hn         1 AZG       0.332700
@<TRIPOS>BOND
     1     1     2 ar  
     2     1     8 ar  
     3     1    11 1   
     4     2     3 ar  
     5     3     4 1   
     6     3     5 ar  
     7     4    12 1   
     8     4    13 1   
     9     5     6 ar  
    10     6     7 1   
    11     6     8 ar  
    12     7    14 1   
    13     8     9 1   
    14     9    10 1   
    15     9    15 1   
    16    10    11 2   
@<TRIPOS>SUBSTRUCTURE
     1 AZG         1 TEMP              0 ****  ****    0 ROOT
