@<TRIPOS>MOLECULE
AZH
   18    17     1     0     0
SMALL
No Charge or Current Charge


@<TRIPOS>ATOM
      1 N          -19.6720    41.8480     4.8690 n8         1 AZH      -0.977200
      2 CA         -18.7830    40.8740     4.1360 c3         1 AZH       0.018500
      3 CB         -17.5990    40.4340     5.0450 c3         1 AZH      -0.122400
      4 CG         -16.6020    41.5540     5.4470 c3         1 AZH       0.139800
      5 ND         -15.9530    42.1390     4.2680 n2         1 AZH      -0.043200
      6 NE         -14.8580    41.6610     3.9340 n1         1 AZH       0.215000
      7 NZ         -14.8090    41.5460     2.7030 n2         1 AZH      -0.265400
      8 C          -19.5070    39.6100     3.5090 c          1 AZH       0.728000
      9 O          -19.5510    39.5140     2.2890 o          1 AZH      -0.690000
     10 OX0        -20.0250    38.7990     4.2680 o          1 AZH      -0.690000
     11 HN1        -20.1180    41.3710     5.6640 hn         1 AZH       0.383500
     12 HN2        -19.1130    42.5930     5.2990 hn         1 AZH       0.383500
     13 HA         -18.3580    41.4180     3.2810 h1         1 AZH       0.049700
     14 HB1C       -17.9960    39.9700     5.9570 hc         1 AZH       0.090700
     15 HB2C       -17.0370    39.6450     4.5290 hc         1 AZH       0.090700
     16 HG1C       -17.1310    42.3350     6.0050 h1         1 AZH       0.092700
     17 HG2C       -15.8540    41.1330     6.1330 h1         1 AZH       0.092700
     18 HZ         -13.8260    41.5390     2.4000 hn         1 AZH       0.501400
@<TRIPOS>BOND
     1     1     2 1   
     2     1    11 1   
     3     1    12 1   
     4     2     3 1   
     5     2     8 1   
     6     2    13 1   
     7     3     4 1   
     8     3    14 1   
     9     3    15 1   
    10     4     5 1   
    11     4    16 1   
    12     4    17 1   
    13     5     6 2   
    14     6     7 2   
    15     7    18 1   
    16     8     9 1   
    17     8    10 1   
@<TRIPOS>SUBSTRUCTURE
     1 AZH         1 TEMP              0 ****  ****    0 ROOT
