@<TRIPOS>MOLECULE
AZH
   18    17     1     0     0
SMALL
abcg2


@<TRIPOS>ATOM
      1 N          -19.6030    41.8400     4.7900 n8         1 AZH      -0.977200
      2 CA         -18.8550    40.8060     4.1000 c3         1 AZH       0.018500
      3 CB         -17.6260    40.2690     4.8580 c3         1 AZH      -0.122400
      4 CG         -16.6230    41.3140     5.3050 c3         1 AZH       0.139800
      5 ND         -16.1330    42.0700     4.1220 n2         1 AZH      -0.043200
      6 NE         -15.0550    42.1240     3.7250 n1         1 AZH       0.215000
      7 NZ         -13.9800    42.3770     3.3310 n2         1 AZH      -0.265400
      8 C          -19.7600    39.5800     3.8190 c          1 AZH       0.728000
      9 O          -19.5540    38.9690     2.7540 o          1 AZH      -0.690000
     10 OX0        -20.5800    39.2920     4.7120 o          1 AZH      -0.690000
     11 HN1        -19.9420    41.4830     5.6740 hn         1 AZH       0.383500
     12 HN2        -19.0350    42.6540     4.9830 hn         1 AZH       0.383500
     13 HA         -18.5180    41.2170     3.1440 h1         1 AZH       0.049700
     14 HB1C       -17.9560    39.7820     5.7810 hc         1 AZH       0.090700
     15 HB2C       -17.1130    39.5100     4.2630 hc         1 AZH       0.090700
     16 HG1C       -17.0810    42.0770     5.9330 h1         1 AZH       0.092700
     17 HG2C       -15.7680    40.8830     5.8220 h1         1 AZH       0.092700
     18 HZ         -13.6090    41.7360     2.6190 hn         1 AZH       0.501400
@<TRIPOS>BOND
     1     1     2 1   
     2     1    11 1   
     3     1    12 1   
     4     2     3 1   
     5     2     8 1   
     6     2    13 1   
     7     3     4 1   
     8     3    14 1   
     9     3    15 1   
    10     4     5 1   
    11     4    16 1   
    12     4    17 1   
    13     5     6 2   
    14     6     7 2   
    15     7    18 1   
    16     8     9 1   
    17     8    10 1   
@<TRIPOS>SUBSTRUCTURE
     1 AZH         1 TEMP              0 ****  ****    0 ROOT
