@<TRIPOS>MOLECULE
AZI
    3     2     1     0     0
SMALL
bcc


@<TRIPOS>ATOM
      1 N1           4.2960    18.7100    20.0690 n1         1 AZI      -0.624500
      2 N2           3.9800    19.7590    20.4750 n2         1 AZI       0.249000
      3 N3           3.6280    20.8290    20.7840 n1         1 AZI      -0.624500
@<TRIPOS>BOND
     1     1     2 1   
     2     2     3 1   
@<TRIPOS>SUBSTRUCTURE
     1 AZI         1 TEMP              0 ****  ****    0 ROOT
