@<TRIPOS>MOLECULE
AZI
    3     2     1     0     0
SMALL
No Charge or Current Charge


@<TRIPOS>ATOM
      1 N1           4.1760    18.8990    19.9170 n1         1 AZI      -0.624500
      2 N2           4.1300    19.6710    20.8770 n2         1 AZI       0.249000
      3 N3           3.5990    20.7290    20.5340 n1         1 AZI      -0.624500
@<TRIPOS>BOND
     1     1     2 1   
     2     2     3 1   
@<TRIPOS>SUBSTRUCTURE
     1 AZI         1 TEMP              0 ****  ****    0 ROOT
