@<TRIPOS>MOLECULE
AZJ
   59    61     1     0     0
SMALL
No Charge or Current Charge


@<TRIPOS>ATOM
      1 CAA         10.1710    -1.5640    -0.5200 c3         1 AZJ      -0.099100
      2 NAC          2.9840    -3.1630    -0.4520 n1         1 AZJ      -0.466000
      3 OAD         -2.6550    -1.3210     0.0050 o          1 AZJ      -0.546100
      4 OAE          7.9910     1.3750     1.6040 o          1 AZJ      -0.498000
      5 OAF         -5.1300    -1.0720    -1.6580 o          1 AZJ      -0.514500
      6 OAG         -5.5850     1.4210    -1.8380 o          1 AZJ      -0.514500
      7 CAH          3.4590    -2.1240    -0.2150 cg         1 AZJ       0.338000
      8 CAI         -9.9310    -0.4520     0.8740 ca         1 AZJ      -0.095000
      9 CAJ         -9.0260    -1.5260     0.9130 ca         1 AZJ      -0.109500
     10 CAK         -9.4530     0.8620     0.7370 ca         1 AZJ      -0.109500
     11 CAL         -7.6440    -1.2870     0.8150 ca         1 AZJ      -0.083000
     12 CAM         -8.0710     1.1020     0.6400 ca         1 AZJ      -0.083000
     13 CAN          5.4470    -0.7770     0.2730 ca         1 AZJ       0.057000
     14 CAO          9.6280    -0.4070     0.3320 c3         1 AZJ       0.170600
     15 CAP         -0.0280    -0.3990    -1.4030 c6         1 AZJ      -0.091400
     16 CAQ         -0.3750     0.5670     0.9640 c6         1 AZJ      -0.091400
     17 CAR          1.3840     0.2340    -1.4030 c6         1 AZJ       0.222300
     18 CAS          1.0520     1.1610     0.8820 c6         1 AZJ       0.222300
     19 CAT         -5.6600     0.2890     0.5720 c3         1 AZJ      -0.249100
     20 NAU          3.8290     1.5060     0.4690 nb         1 AZJ      -0.795000
     21 NAV         -3.3880     0.6230    -0.8980 ns         1 AZJ      -0.594300
     22 OAW          8.2020    -0.3730     0.1510 os         1 AZJ      -0.455100
     23 CAX         -2.4180    -0.2050    -0.4270 c          1 AZJ       0.634100
     24 CAY          7.4870     0.5890     0.8150 c          1 AZJ       0.627700
     25 CAZ          5.1590     1.5930     0.6660 ca         1 AZJ       0.502300
     26 CBA         -7.1600     0.0290     0.6760 ca         1 AZJ      -0.095300
     27 CBB          4.0640    -0.8600     0.0700 ca         1 AZJ      -0.182000
     28 CBC          6.0130     0.4750     0.5820 ca         1 AZJ      -0.270600
     29 CBD          3.2990     0.3100     0.1790 ca         1 AZJ       0.713900
     30 CBE         -0.9860     0.3670    -0.4500 c6         1 AZJ      -0.142700
     31 NBF          1.9110     0.3360    -0.0150 nh         1 AZJ      -0.778300
     32 SBG         -5.0100     0.2840    -1.1120 s6         1 AZJ       1.193800
     33 H1           9.9350    -1.4070    -1.5790 hc         1 AZJ       0.047700
     34 H2          11.2600    -1.6320    -0.4160 hc         1 AZJ       0.047700
     35 H3           9.7340    -2.5170    -0.2000 hc         1 AZJ       0.047700
     36 H4           5.9580     3.1100     1.9910 hc         1 AZJ       0.066700
     37 H5           6.4960     3.2640     0.3040 hc         1 AZJ       0.066700
     38 H6           4.8640     3.7520     0.7620 hc         1 AZJ       0.066700
     39 H7         -11.0010    -0.6380     0.9490 ha         1 AZJ       0.115000
     40 H8          -9.3950    -2.5440     1.0190 ha         1 AZJ       0.117500
     41 H9         -10.1530     1.6950     0.7070 ha         1 AZJ       0.117500
     42 H10         -6.9500    -2.1240     0.8460 ha         1 AZJ       0.122500
     43 H11         -7.7100     2.1230     0.5340 ha         1 AZJ       0.122500
     44 H12          6.0650    -1.6730     0.2060 ha         1 AZJ       0.144000
     45 H13          9.8860    -0.5750     1.3860 h1         1 AZJ       0.049200
     46 H14         10.0870     0.5360     0.0060 h1         1 AZJ       0.049200
     47 H15         -0.4300    -0.4080    -2.4250 hc         1 AZJ       0.068950
     48 H16          0.0500    -1.4490    -1.0870 hc         1 AZJ       0.068950
     49 H17         -0.3310    -0.3980     1.4880 hc         1 AZJ       0.068950
     50 H18         -1.0150     1.2230     1.5690 hc         1 AZJ       0.068950
     51 H19          2.0480    -0.3770    -2.0330 h1         1 AZJ       0.064700
     52 H20          1.3350     1.2340    -1.8620 h1         1 AZJ       0.064700
     53 H21          0.9980     2.1960     0.5120 h1         1 AZJ       0.064700
     54 H22          1.4760     1.1970     1.8970 h1         1 AZJ       0.064700
     55 H23         -5.4070     1.2700     0.9880 h1         1 AZJ       0.107200
     56 H24         -5.0970    -0.4800     1.1120 h1         1 AZJ       0.107200
     57 H25         -3.1450     1.5370    -1.2420 hn         1 AZJ       0.345500
     58 H26         -1.0790     1.3760    -0.8760 hc         1 AZJ       0.059700
     59 CAB          5.6460     3.0060     0.9460 c3         1 AZJ      -0.156400
@<TRIPOS>BOND
     1     1    14 1   
     2     1    33 1   
     3     1    34 1   
     4     1    35 1   
     5     2     7 3   
     6     3    23 2   
     7     4    24 2   
     8     5    32 2   
     9     6    32 2   
    10     7    27 1   
    11     8     9 ar  
    12     8    10 ar  
    13     8    39 1   
    14     9    11 ar  
    15     9    40 1   
    16    10    12 ar  
    17    10    41 1   
    18    11    26 ar  
    19    11    42 1   
    20    12    26 ar  
    21    12    43 1   
    22    13    27 ar  
    23    13    28 ar  
    24    13    44 1   
    25    14    22 1   
    26    14    45 1   
    27    14    46 1   
    28    15    17 1   
    29    15    30 1   
    30    15    47 1   
    31    15    48 1   
    32    16    18 1   
    33    16    30 1   
    34    16    49 1   
    35    16    50 1   
    36    17    31 1   
    37    17    51 1   
    38    17    52 1   
    39    18    31 1   
    40    18    53 1   
    41    18    54 1   
    42    19    26 1   
    43    19    32 1   
    44    19    55 1   
    45    19    56 1   
    46    20    25 ar  
    47    20    29 ar  
    48    21    23 1   
    49    21    32 1   
    50    21    57 1   
    51    22    24 1   
    52    23    30 1   
    53    24    28 1   
    54    25    28 ar  
    55    25    59 1   
    56    27    29 ar  
    57    29    31 1   
    58    30    58 1   
    59    36    59 1   
    60    37    59 1   
    61    38    59 1   
@<TRIPOS>SUBSTRUCTURE
     1 AZJ         1 TEMP              0 ****  ****    0 ROOT
