@<TRIPOS>MOLECULE
AZJ
   59    61     1     0     0
SMALL
abcg2


@<TRIPOS>ATOM
      1 CAA          9.1850    -2.6870    -0.5240 c3         1 AZJ      -0.099100
      2 NAC          2.4730    -1.9690    -1.9940 n1         1 AZJ      -0.466000
      3 OAD         -2.3210     0.0730     1.1160 o          1 AZJ      -0.546100
      4 OAE          7.9460     0.7600     1.4190 o          1 AZJ      -0.498000
      5 OAF         -4.2410    -1.6240    -0.4050 o          1 AZJ      -0.514500
      6 OAG         -5.2700    -0.0370    -2.0470 o          1 AZJ      -0.514500
      7 CAH          3.0190    -1.1210    -1.4330 cg         1 AZJ       0.338000
      8 CAI         -9.2100    -1.6230     0.9910 ca         1 AZJ      -0.095000
      9 CAJ         -8.0970    -1.9970     1.7340 ca         1 AZJ      -0.109500
     10 CAK         -9.1250    -0.5560     0.1060 ca         1 AZJ      -0.109500
     11 CAL         -6.9020    -1.3070     1.5910 ca         1 AZJ      -0.083000
     12 CAM         -7.9300     0.1330    -0.0380 ca         1 AZJ      -0.083000
     13 CAN          5.0610    -0.4190    -0.4020 ca         1 AZJ       0.057000
     14 CAO          8.9870    -1.4190     0.2700 c3         1 AZJ       0.170600
     15 CAP         -0.1150     0.4820    -1.3110 c6         1 AZJ      -0.091400
     16 CAQ         -0.1000     1.8080     0.8350 c6         1 AZJ      -0.091400
     17 CAR          1.1900     1.1830    -1.6570 c6         1 AZJ       0.222300
     18 CAS          1.2180     2.4390     0.3960 c6         1 AZJ       0.222300
     19 CAT         -5.5200     0.5000     0.5400 c3         1 AZJ      -0.249100
     20 NAU          3.8490     1.7250     0.7700 nb         1 AZJ      -0.795000
     21 NAV         -3.1860     0.6500    -0.8900 ns         1 AZJ      -0.594300
     22 OAW          7.6160    -1.0220     0.1210 os         1 AZJ      -0.455100
     23 CAX         -2.1880     0.6450     0.0580 c          1 AZJ       0.634100
     24 CAY          7.2140     0.0840     0.7340 c          1 AZJ       0.627700
     25 CAZ          5.0950     1.4390     1.0880 ca         1 AZJ       0.502300
     26 CBA         -6.8140    -0.2340     0.7080 ca         1 AZJ      -0.095300
     27 CBB          3.7360    -0.1390    -0.7020 ca         1 AZJ      -0.182000
     28 CBC          5.7920     0.3780     0.4660 ca         1 AZJ      -0.270600
     29 CBD          3.1570     1.0360    -0.1430 ca         1 AZJ       0.713900
     30 CBE         -0.9350     1.3770    -0.3660 c6         1 AZJ      -0.142700
     31 NBF          1.9410     1.5110    -0.4610 nh         1 AZJ      -0.778300
     32 SBG         -4.5880    -0.2710    -0.7870 s6         1 AZJ       1.193800
     33 H1           8.9740    -2.5350    -1.5830 hc         1 AZJ       0.047700
     34 H2          10.2230    -3.0060    -0.4330 hc         1 AZJ       0.047700
     35 H3           8.5530    -3.4950    -0.1550 hc         1 AZJ       0.047700
     36 H4           6.1090     1.7380     2.9640 hc         1 AZJ       0.066700
     37 H5           6.5020     2.9240     1.7390 hc         1 AZJ       0.066700
     38 H6           4.9220     2.9800     2.5320 hc         1 AZJ       0.066700
     39 H7         -10.1430    -2.1610     1.1040 ha         1 AZJ       0.115000
     40 H8          -8.1590    -2.8260     2.4260 ha         1 AZJ       0.117500
     41 H9          -9.9890    -0.2620    -0.4750 ha         1 AZJ       0.117500
     42 H10         -6.0400    -1.5970     2.1770 ha         1 AZJ       0.122500
     43 H11         -7.8670     0.9670    -0.7260 ha         1 AZJ       0.122500
     44 H12          5.5070    -1.2990    -0.8440 ha         1 AZJ       0.144000
     45 H13          9.2100    -1.5830     1.3270 h1         1 AZJ       0.049200
     46 H14          9.6410    -0.6240    -0.0920 h1         1 AZJ       0.049200
     47 H15         -0.6640     0.2810    -2.2320 hc         1 AZJ       0.068950
     48 H16          0.0940    -0.4800    -0.8370 hc         1 AZJ       0.068950
     49 H17          0.1140     0.9510     1.4770 hc         1 AZJ       0.068950
     50 H18         -0.6500     2.5340     1.4370 hc         1 AZJ       0.068950
     51 H19          1.7810     0.6030    -2.3570 h1         1 AZJ       0.064700
     52 H20          0.9650     2.1280    -2.1640 h1         1 AZJ       0.064700
     53 H21          1.0330     3.3620    -0.1630 h1         1 AZJ       0.064700
     54 H22          1.8240     2.6940     1.2590 h1         1 AZJ       0.064700
     55 H23         -5.6620     1.5410     0.2510 h1         1 AZJ       0.107200
     56 H24         -4.8970     0.4590     1.4330 h1         1 AZJ       0.107200
     57 H25         -3.0960     1.2090    -1.7300 hn         1 AZJ       0.345500
     58 H26         -1.2310     2.2710    -0.9280 hc         1 AZJ       0.059700
     59 CAB          5.6910     2.3180     2.1430 c3         1 AZJ      -0.156400
@<TRIPOS>BOND
     1     1    14 1   
     2     1    33 1   
     3     1    34 1   
     4     1    35 1   
     5     2     7 3   
     6     3    23 2   
     7     4    24 2   
     8     5    32 2   
     9     6    32 2   
    10     7    27 1   
    11     8     9 ar  
    12     8    10 ar  
    13     8    39 1   
    14     9    11 ar  
    15     9    40 1   
    16    10    12 ar  
    17    10    41 1   
    18    11    26 ar  
    19    11    42 1   
    20    12    26 ar  
    21    12    43 1   
    22    13    27 ar  
    23    13    28 ar  
    24    13    44 1   
    25    14    22 1   
    26    14    45 1   
    27    14    46 1   
    28    15    17 1   
    29    15    30 1   
    30    15    47 1   
    31    15    48 1   
    32    16    18 1   
    33    16    30 1   
    34    16    49 1   
    35    16    50 1   
    36    17    31 1   
    37    17    51 1   
    38    17    52 1   
    39    18    31 1   
    40    18    53 1   
    41    18    54 1   
    42    19    26 1   
    43    19    32 1   
    44    19    55 1   
    45    19    56 1   
    46    20    25 ar  
    47    20    29 ar  
    48    21    23 1   
    49    21    32 1   
    50    21    57 1   
    51    22    24 1   
    52    23    30 1   
    53    24    28 1   
    54    25    28 ar  
    55    25    59 1   
    56    27    29 ar  
    57    29    31 1   
    58    30    58 1   
    59    36    59 1   
    60    37    59 1   
    61    38    59 1   
@<TRIPOS>SUBSTRUCTURE
     1 AZJ         1 TEMP              0 ****  ****    0 ROOT
