@<TRIPOS>MOLECULE
AZK
   25    24     1     0     0
SMALL
bcc


@<TRIPOS>ATOM
      1 N           23.2670    -7.6920     4.9630 n8         1 AZK      -0.887800
      2 CA          23.1160    -7.8250     3.5200 c3         1 AZK       0.124500
      3 CB          24.4290    -7.9170     2.7400 c3         1 AZK      -0.114400
      4 CG          25.3340    -6.7020     2.9090 c3         1 AZK      -0.074400
      5 CD          26.5710    -6.7800     2.0240 c3         1 AZK      -0.096400
      6 CE          27.5140    -5.5960     2.1740 c3         1 AZK       0.156800
      7 NZ          28.0590    -5.4520     3.5340 n2         1 AZK      -0.438200
      8 NZ2         28.8640    -6.2920     3.8830 n1         1 AZK       0.229000
      9 NZ3         29.6180    -7.0210     4.2940 n1         1 AZK      -0.082000
     10 C           22.2240    -9.0420     3.2720 c3         1 AZK       0.134400
     11 O           21.9410    -9.2850     1.9130 oh         1 AZK      -0.593800
     12 H           23.6950    -6.8030     5.1900 hn         1 AZK       0.342300
     13 H2          23.9070    -8.4010     5.3040 hn         1 AZK       0.342300
     14 HA          22.5730    -6.9350     3.1750 h1         1 AZK       0.052700
     15 HB2         24.2070    -8.0500     1.6770 hc         1 AZK       0.050700
     16 HB3         24.9660    -8.8190     3.0580 hc         1 AZK       0.050700
     17 HG2         25.6380    -6.6070     3.9550 hc         1 AZK       0.043700
     18 HG3         24.7750    -5.7920     2.6650 hc         1 AZK       0.043700
     19 HD2         26.2670    -6.8220     0.9740 hc         1 AZK       0.045200
     20 HD3         27.1140    -7.7110     2.2170 hc         1 AZK       0.045200
     21 HE2         26.9850    -4.6640     1.9790 h1         1 AZK       0.061700
     22 HE3         28.3300    -5.6650     1.4500 h1         1 AZK       0.061700
     23 HC1         21.3070    -8.9260     3.8620 h1         1 AZK       0.052200
     24 HC2         22.7320    -9.9370     3.6460 h1         1 AZK       0.052200
     25 HO          21.4410    -8.5360     1.5750 ho         1 AZK       0.398000
@<TRIPOS>BOND
     1     1     2 1   
     2     1    12 1   
     3     1    13 1   
     4     2     3 1   
     5     2    10 1   
     6     2    14 1   
     7     3     4 1   
     8     3    15 1   
     9     3    16 1   
    10     4     5 1   
    11     4    17 1   
    12     4    18 1   
    13     5     6 1   
    14     5    19 1   
    15     5    20 1   
    16     6     7 1   
    17     6    21 1   
    18     6    22 1   
    19     7     8 1   
    20     8     9 3   
    21    10    11 1   
    22    10    23 1   
    23    10    24 1   
    24    11    25 1   
@<TRIPOS>SUBSTRUCTURE
     1 AZK         1 TEMP              0 ****  ****    0 ROOT
