@<TRIPOS>MOLECULE
AZK
   25    24     1     0     0
SMALL
No Charge or Current Charge


@<TRIPOS>ATOM
      1 N           23.2770    -7.7360     4.9650 n8         1 AZK      -0.887800
      2 CA          23.0500    -7.8730     3.5100 c3         1 AZK       0.124500
      3 CB          24.4080    -7.9740     2.7650 c3         1 AZK      -0.114400
      4 CG          25.3240    -6.7340     2.9220 c3         1 AZK      -0.074400
      5 CD          26.6310    -6.8450     2.1000 c3         1 AZK      -0.096400
      6 CE          27.5490    -5.6020     2.1930 c3         1 AZK       0.156800
      7 NZ          28.0500    -5.4080     3.5620 n2         1 AZK      -0.438200
      8 NZ2         29.1020    -6.0000     3.8570 n1         1 AZK       0.229000
      9 NZ3         29.9880    -6.6100     4.2260 n1         1 AZK      -0.082000
     10 C           22.1000    -9.0740     3.2150 c3         1 AZK       0.134400
     11 O           21.7050    -9.1030     1.8330 oh         1 AZK      -0.593800
     12 H           23.8840    -6.9270     5.1300 hn         1 AZK       0.342300
     13 H2          23.8310    -8.5330     5.2930 hn         1 AZK       0.342300
     14 HA          22.5410    -6.9570     3.1760 h1         1 AZK       0.052700
     15 HB2         24.2130    -8.1200     1.6950 hc         1 AZK       0.050700
     16 HB3         24.9450    -8.8680     3.1060 hc         1 AZK       0.050700
     17 HG2         25.5770    -6.5960     3.9800 hc         1 AZK       0.043700
     18 HG3         24.7750    -5.8380     2.6040 hc         1 AZK       0.043700
     19 HD2         26.3730    -7.0000     1.0450 hc         1 AZK       0.045200
     20 HD3         27.1900    -7.7340     2.4180 hc         1 AZK       0.045200
     21 HE2         26.9830    -4.7190     1.8680 h1         1 AZK       0.061700
     22 HE3         28.3820    -5.7250     1.4860 h1         1 AZK       0.061700
     23 HC1         21.2110    -8.9910     3.8550 h1         1 AZK       0.052200
     24 HC2         22.6100   -10.0100     3.4840 h1         1 AZK       0.052200
     25 HO          21.1750    -8.2930     1.6670 ho         1 AZK       0.398000
@<TRIPOS>BOND
     1     1     2 1   
     2     1    12 1   
     3     1    13 1   
     4     2     3 1   
     5     2    10 1   
     6     2    14 1   
     7     3     4 1   
     8     3    15 1   
     9     3    16 1   
    10     4     5 1   
    11     4    17 1   
    12     4    18 1   
    13     5     6 1   
    14     5    19 1   
    15     5    20 1   
    16     6     7 1   
    17     6    21 1   
    18     6    22 1   
    19     7     8 1   
    20     8     9 3   
    21    10    11 1   
    22    10    23 1   
    23    10    24 1   
    24    11    25 1   
@<TRIPOS>SUBSTRUCTURE
     1 AZK         1 TEMP              0 ****  ****    0 ROOT
