@<TRIPOS>MOLECULE
AZL
   63    64     1     0     0
SMALL
No Charge or Current Charge


@<TRIPOS>ATOM
      1 C23         -3.5350     1.6980    -0.6330 c          1 AZL       0.649100
      2 O23         -4.0040     1.1680    -1.6270 o          1 AZL      -0.543000
      3 O24         -3.7830     2.9690    -0.2130 os         1 AZL      -0.463100
      4 C24         -4.7130     3.7520    -0.9780 c3         1 AZL       0.185600
      5 C25         -4.8270     5.1260    -0.3000 c3         1 AZL      -0.099100
      6 N9          -2.6310     1.1260     0.2150 ns         1 AZL      -0.484900
      7 C15         -2.1360    -0.2660     0.1220 c3         1 AZL       0.056700
      8 C14         -0.6230    -0.3340     0.4990 c          1 AZL       0.604100
      9 O14         -0.1090     0.5310     1.2020 o          1 AZL      -0.604100
     10 C16         -2.9840    -1.2100     1.0180 c3         1 AZL      -0.053100
     11 C17         -4.4460    -1.2870     0.5940 ca         1 AZL      -0.085300
     12 C18         -4.8260    -2.1010    -0.4910 ca         1 AZL      -0.099000
     13 C22         -5.4280    -0.5420     1.2780 ca         1 AZL      -0.099000
     14 C19         -6.1720    -2.1690    -0.8890 ca         1 AZL      -0.106000
     15 C21         -6.7740    -0.6090     0.8780 ca         1 AZL      -0.106000
     16 C20         -7.1470    -1.4230    -0.2050 ca         1 AZL      -0.105000
     17 N8           0.1420    -1.4480     0.0720 n          1 AZL      -0.397800
     18 C9           1.5930    -1.5960     0.4010 c5         1 AZL       0.024700
     19 C8           2.5090    -0.3870     0.0090 c          1 AZL       0.623100
     20 O8           2.2890     0.4670    -0.8460 o          1 AZL      -0.552100
     21 C10          2.0040    -2.8160    -0.4860 c5         1 AZL      -0.087400
     22 C11          0.6780    -3.6010    -0.6260 c5         1 AZL      -0.093400
     23 C12         -0.3280    -2.4600    -0.8990 c5         1 AZL       0.105000
     24 N1          10.8730     1.1350    -0.6970 n8         1 AZL      -0.995200
     25 C2           9.5390     1.6760    -0.3760 c3         1 AZL       0.148800
     26 C3           8.5080     0.5490    -0.1630 c3         1 AZL      -0.076400
     27 C4           7.0960     1.0830     0.1730 c3         1 AZL      -0.079400
     28 C5           6.0630    -0.0430     0.3830 c3         1 AZL       0.139800
     29 N6           4.7390     0.5280     0.6870 n7         1 AZL      -0.588400
     30 N7           3.6710    -0.4230     0.7860 ns         1 AZL      -0.393300
     31 H241        -4.3610     3.8810    -2.0110 h1         1 AZL       0.048700
     32 H242        -5.7010     3.2730    -1.0030 h1         1 AZL       0.048700
     33 H251        -5.1910     5.0200     0.7290 hc         1 AZL       0.045700
     34 H252        -3.8520     5.6280    -0.2780 hc         1 AZL       0.045700
     35 H253        -5.5300     5.7630    -0.8500 hc         1 AZL       0.045700
     36 HN9         -2.2940     1.7150     0.9660 hn         1 AZL       0.339500
     37 H15         -2.2200    -0.5930    -0.9220 h1         1 AZL       0.098700
     38 H161        -2.5520    -2.2170     1.0160 hc         1 AZL       0.057200
     39 H162        -2.9100    -0.8670     2.0570 hc         1 AZL       0.057200
     40 H18         -4.0780    -2.6790    -1.0280 ha         1 AZL       0.108500
     41 H22         -5.1480     0.0940     2.1140 ha         1 AZL       0.108500
     42 H19         -6.4600    -2.7980    -1.7290 ha         1 AZL       0.112000
     43 H21         -7.5270    -0.0300     1.4080 ha         1 AZL       0.112000
     44 H20         -8.1890    -1.4750    -0.5140 ha         1 AZL       0.112000
     45 H9           1.7130    -1.8170     1.4700 h1         1 AZL       0.062700
     46 H101         2.3620    -2.4960    -1.4720 hc         1 AZL       0.063700
     47 H102         2.8040    -3.4130    -0.0320 hc         1 AZL       0.063700
     48 H111         0.7040    -4.3400    -1.4350 hc         1 AZL       0.056700
     49 H112         0.4310    -4.1350     0.3000 hc         1 AZL       0.056700
     50 H121        -1.3600    -2.7910    -0.7310 h1         1 AZL       0.056700
     51 H122        -0.2450    -2.0830    -1.9270 h1         1 AZL       0.056700
     52 HN11        11.5400     1.9130    -0.7710 hn         1 AZL       0.391500
     53 HN12        11.2180     0.5990     0.1080 hn         1 AZL       0.391500
     54 H21A         9.6160     2.2860     0.5350 h1         1 AZL       0.028700
     55 H22A         9.2140     2.3240    -1.2020 h1         1 AZL       0.028700
     56 H31          8.4520    -0.0660    -1.0700 hc         1 AZL       0.045700
     57 H32          8.8470    -0.1040     0.6510 hc         1 AZL       0.045700
     58 H41          7.1510     1.6980     1.0800 hc         1 AZL       0.050200
     59 H42          6.7560     1.7360    -0.6410 hc         1 AZL       0.050200
     60 H51          6.0110    -0.6550    -0.5280 h1         1 AZL       0.035700
     61 H52          6.3970    -0.6910     1.2050 h1         1 AZL       0.035700
     62 HN6          4.7930     1.1540     1.5070 hn         1 AZL       0.416000
     63 HN7          3.7170    -1.1820     1.4650 hn         1 AZL       0.297500
@<TRIPOS>BOND
     1     1     2 2   
     2     1     3 1   
     3     1     6 1   
     4     3     4 1   
     5     4     5 1   
     6     4    31 1   
     7     4    32 1   
     8     5    33 1   
     9     5    34 1   
    10     5    35 1   
    11     6     7 1   
    12     6    36 1   
    13     7     8 1   
    14     7    10 1   
    15     7    37 1   
    16     8     9 2   
    17     8    17 1   
    18    10    11 1   
    19    10    38 1   
    20    10    39 1   
    21    11    12 ar  
    22    11    13 ar  
    23    12    14 ar  
    24    12    40 1   
    25    13    15 ar  
    26    13    41 1   
    27    14    16 ar  
    28    14    42 1   
    29    15    16 ar  
    30    15    43 1   
    31    16    44 1   
    32    17    18 1   
    33    17    23 1   
    34    18    19 1   
    35    18    21 1   
    36    18    45 1   
    37    19    20 2   
    38    19    30 1   
    39    21    22 1   
    40    21    46 1   
    41    21    47 1   
    42    22    23 1   
    43    22    48 1   
    44    22    49 1   
    45    23    50 1   
    46    23    51 1   
    47    24    25 1   
    48    24    52 1   
    49    24    53 1   
    50    25    26 1   
    51    25    54 1   
    52    25    55 1   
    53    26    27 1   
    54    26    56 1   
    55    26    57 1   
    56    27    28 1   
    57    27    58 1   
    58    27    59 1   
    59    28    29 1   
    60    28    60 1   
    61    28    61 1   
    62    29    30 1   
    63    29    62 1   
    64    30    63 1   
@<TRIPOS>SUBSTRUCTURE
     1 AZL         1 TEMP              0 ****  ****    0 ROOT
