@<TRIPOS>MOLECULE
AZL
   63    64     1     0     0
SMALL
abcg2


@<TRIPOS>ATOM
      1 C23         -3.0040     1.5230    -0.6820 c          1 AZL       0.649100
      2 O23         -3.3520     1.0610    -1.7470 o          1 AZL      -0.543000
      3 O24         -3.3080     2.7540    -0.2640 os         1 AZL      -0.463100
      4 C24         -4.1170     3.5610    -1.1250 c3         1 AZL       0.185600
      5 C25         -4.3660     4.8730    -0.4210 c3         1 AZL      -0.099100
      6 N9          -2.2400     0.8900     0.2330 ns         1 AZL      -0.484900
      7 C15         -1.9270    -0.5080     0.1440 c3         1 AZL       0.056700
      8 C14         -0.4680    -0.7160     0.5320 c          1 AZL       0.604100
      9 O14          0.0610    -0.0030     1.3750 o          1 AZL      -0.604100
     10 C16         -2.8240    -1.3480     1.0790 c3         1 AZL      -0.053100
     11 C17         -4.2760    -1.1670     0.7460 ca         1 AZL      -0.085300
     12 C18         -4.8820    -1.9480    -0.2350 ca         1 AZL      -0.099000
     13 C22         -5.0290    -0.1750     1.3690 ca         1 AZL      -0.099000
     14 C19         -6.2080    -1.7440    -0.5870 ca         1 AZL      -0.106000
     15 C21         -6.3550     0.0370     1.0160 ca         1 AZL      -0.106000
     16 C20         -6.9480    -0.7460     0.0360 ca         1 AZL      -0.105000
     17 N8           0.1840    -1.7300    -0.0500 n          1 AZL      -0.397800
     18 C9           1.5850    -1.9620     0.2560 c5         1 AZL       0.024700
     19 C8           2.4170    -0.7140    -0.0160 c          1 AZL       0.623100
     20 O8           2.1940     0.0060    -0.9700 o          1 AZL      -0.552100
     21 C10          1.9810    -3.0980    -0.7000 c5         1 AZL      -0.087400
     22 C11          0.6610    -3.8060    -0.9820 c5         1 AZL      -0.093400
     23 C12         -0.3340    -2.6580    -1.0500 c5         1 AZL       0.105000
     24 N1          10.3250     1.5990    -0.5510 n8         1 AZL      -0.995200
     25 C2           8.9480     2.0080    -0.3080 c3         1 AZL       0.148800
     26 C3           8.0540     0.8020    -0.0590 c3         1 AZL      -0.076400
     27 C4           6.6140     1.2040     0.2260 c3         1 AZL      -0.079400
     28 C5           5.6960     0.0070     0.4200 c3         1 AZL       0.139800
     29 N6           4.3440     0.4710     0.6990 n7         1 AZL      -0.588400
     30 N7           3.4340    -0.5530     0.8480 ns         1 AZL      -0.393300
     31 H241        -3.6040     3.7260    -2.0750 h1         1 AZL       0.048700
     32 H242        -5.0590     3.0520    -1.3370 h1         1 AZL       0.048700
     33 H251        -4.8990     4.7310     0.5190 hc         1 AZL       0.045700
     34 H252        -3.4360     5.4030    -0.2160 hc         1 AZL       0.045700
     35 H253        -4.9790     5.5100    -1.0580 hc         1 AZL       0.045700
     36 HN9         -2.0420     1.3580     1.1050 hn         1 AZL       0.339500
     37 H15         -2.0950    -0.8160    -0.8880 h1         1 AZL       0.098700
     38 H161        -2.5420    -2.4010     1.0060 hc         1 AZL       0.057200
     39 H162        -2.6310    -1.0430     2.1110 hc         1 AZL       0.057200
     40 H18         -4.3090    -2.7270    -0.7270 ha         1 AZL       0.108500
     41 H22         -4.5750     0.4360     2.1400 ha         1 AZL       0.108500
     42 H19         -6.6660    -2.3630    -1.3480 ha         1 AZL       0.112000
     43 H21         -6.9260     0.8130     1.5100 ha         1 AZL       0.112000
     44 H20         -7.9820    -0.5840    -0.2390 ha         1 AZL       0.112000
     45 H9           1.6940    -2.2840     1.2970 h1         1 AZL       0.062700
     46 H101         2.3870    -2.6900    -1.6280 hc         1 AZL       0.063700
     47 H102         2.7350    -3.7480    -0.2600 hc         1 AZL       0.063700
     48 H111         0.6790    -4.3910    -1.9000 hc         1 AZL       0.056700
     49 H112         0.4030    -4.4770    -0.1600 hc         1 AZL       0.056700
     50 H121        -1.3480    -2.9800    -0.8170 h1         1 AZL       0.056700
     51 H122        -0.3410    -2.1970    -2.0420 h1         1 AZL       0.056700
     52 HN11        10.8840     2.4150    -0.7670 hn         1 AZL       0.391500
     53 HN12        10.7160     1.2240     0.3040 hn         1 AZL       0.391500
     54 H21A         8.8400     2.7080     0.5330 h1         1 AZL       0.028700
     55 H22A         8.5890     2.5380    -1.1950 h1         1 AZL       0.028700
     56 H31          8.0950     0.1400    -0.9290 hc         1 AZL       0.045700
     57 H32          8.4490     0.2300     0.7880 hc         1 AZL       0.045700
     58 H41          6.5820     1.8360     1.1200 hc         1 AZL       0.050200
     59 H42          6.2270     1.8110    -0.5980 hc         1 AZL       0.050200
     60 H51          5.6690    -0.5890    -0.4960 h1         1 AZL       0.035700
     61 H52          6.0910    -0.6410     1.2150 h1         1 AZL       0.035700
     62 HN6          4.3340     1.0330     1.5410 hn         1 AZL       0.416000
     63 HN7          3.5440    -1.2060     1.6130 hn         1 AZL       0.297500
@<TRIPOS>BOND
     1     1     2 2   
     2     1     3 1   
     3     1     6 1   
     4     3     4 1   
     5     4     5 1   
     6     4    31 1   
     7     4    32 1   
     8     5    33 1   
     9     5    34 1   
    10     5    35 1   
    11     6     7 1   
    12     6    36 1   
    13     7     8 1   
    14     7    10 1   
    15     7    37 1   
    16     8     9 2   
    17     8    17 1   
    18    10    11 1   
    19    10    38 1   
    20    10    39 1   
    21    11    12 ar  
    22    11    13 ar  
    23    12    14 ar  
    24    12    40 1   
    25    13    15 ar  
    26    13    41 1   
    27    14    16 ar  
    28    14    42 1   
    29    15    16 ar  
    30    15    43 1   
    31    16    44 1   
    32    17    18 1   
    33    17    23 1   
    34    18    19 1   
    35    18    21 1   
    36    18    45 1   
    37    19    20 2   
    38    19    30 1   
    39    21    22 1   
    40    21    46 1   
    41    21    47 1   
    42    22    23 1   
    43    22    48 1   
    44    22    49 1   
    45    23    50 1   
    46    23    51 1   
    47    24    25 1   
    48    24    52 1   
    49    24    53 1   
    50    25    26 1   
    51    25    54 1   
    52    25    55 1   
    53    26    27 1   
    54    26    56 1   
    55    26    57 1   
    56    27    28 1   
    57    27    58 1   
    58    27    59 1   
    59    28    29 1   
    60    28    60 1   
    61    28    61 1   
    62    29    30 1   
    63    29    62 1   
    64    30    63 1   
@<TRIPOS>SUBSTRUCTURE
     1 AZL         1 TEMP              0 ****  ****    0 ROOT
