@<TRIPOS>MOLECULE
AZM
   19    19     1     0     0
SMALL
No Charge or Current Charge


@<TRIPOS>ATOM
      1 C1          34.6500    17.3890   -17.8760 cc         1 AZM       0.128300
      2 C2          33.9300    16.3920   -19.9200 cc         1 AZM       0.522300
      3 C3          33.0260    14.4020   -21.0840 c          1 AZM       0.603100
      4 C4          32.6140    13.9530   -22.4790 c3         1 AZM      -0.169100
      5 N1          36.6830    17.3460   -16.0290 n8         1 AZM      -1.088100
      6 N2          34.3320    17.6410   -20.0890 nd         1 AZM      -0.408000
      7 N3          34.7530    18.2230   -18.9050 nd         1 AZM      -0.186000
      8 N4          33.4860    15.6910   -21.0150 ns         1 AZM      -0.474400
      9 O1          34.4310    16.9560   -15.2100 o          1 AZM      -0.536500
     10 O2          35.1970    19.2690   -15.9950 o          1 AZM      -0.536500
     11 O3          32.9450    13.6590   -20.1190 o          1 AZM      -0.560100
     12 S1          35.1190    17.8180   -16.1710 sy         1 AZM       1.172200
     13 S2          34.0290    15.8120   -18.2780 ss         1 AZM      -0.058800
     14 H41         32.2520    12.9190   -22.4980 hc         1 AZM       0.075367
     15 H42         31.8660    14.6500   -22.8730 hc         1 AZM       0.075367
     16 H43         33.4560    14.0980   -23.1650 hc         1 AZM       0.075367
     17 HN11        36.6230    16.8210   -15.1570 hn         1 AZM       0.508500
     18 HN12        37.0960    18.2230   -15.7130 hn         1 AZM       0.508500
     19 HN4         33.4980    16.1900   -21.8940 hn         1 AZM       0.348500
@<TRIPOS>BOND
     1     1     7 2   
     2     1    12 1   
     3     1    13 1   
     4     2     6 2   
     5     2     8 1   
     6     2    13 1   
     7     3     4 1   
     8     3     8 1   
     9     3    11 2   
    10     4    14 1   
    11     4    15 1   
    12     4    16 1   
    13     5    12 1   
    14     5    17 1   
    15     5    18 1   
    16     6     7 1   
    17     8    19 1   
    18     9    12 2   
    19    10    12 2   
@<TRIPOS>SUBSTRUCTURE
     1 AZM         1 TEMP              0 ****  ****    0 ROOT
