@<TRIPOS>MOLECULE
AZM
   19    19     1     0     0
SMALL
abcg2


@<TRIPOS>ATOM
      1 C1          34.5840    17.4120   -17.8660 cc         1 AZM       0.128300
      2 C2          33.9520    16.5140   -19.9450 cc         1 AZM       0.522300
      3 C3          33.0920    14.5140   -21.0140 c          1 AZM       0.603100
      4 C4          32.6860    13.9490   -22.3420 c3         1 AZM      -0.169100
      5 N1          36.5540    17.2920   -16.0520 n8         1 AZM      -1.088100
      6 N2          34.3710    17.7540   -20.0380 nd         1 AZM      -0.408000
      7 N3          34.7360    18.2620   -18.8300 nd         1 AZM      -0.186000
      8 N4          33.5330    15.8190   -21.0440 ns         1 AZM      -0.474400
      9 O1          34.1920    16.9190   -15.3790 o          1 AZM      -0.536500
     10 O2          34.9650    19.2120   -16.0450 o          1 AZM      -0.536500
     11 O3          33.0480    13.9010   -19.9580 o          1 AZM      -0.560100
     12 S1          35.0190    17.7830   -16.1840 sy         1 AZM       1.172200
     13 S2          33.9640    15.8610   -18.3380 ss         1 AZM      -0.058800
     14 H41         32.3850    12.9130   -22.2160 hc         1 AZM       0.075367
     15 H42         31.8560    14.5270   -22.7540 hc         1 AZM       0.075367
     16 H43         33.5170    14.0110   -23.0480 hc         1 AZM       0.075367
     17 HN11        36.7110    16.4730   -15.4810 hn         1 AZM       0.508500
     18 HN12        37.2550    18.0200   -16.0110 hn         1 AZM       0.508500
     19 HN4         33.5650    16.3170   -21.9250 hn         1 AZM       0.348500
@<TRIPOS>BOND
     1     1     7 2   
     2     1    12 1   
     3     1    13 1   
     4     2     6 2   
     5     2     8 1   
     6     2    13 1   
     7     3     4 1   
     8     3     8 1   
     9     3    11 2   
    10     4    14 1   
    11     4    15 1   
    12     4    16 1   
    13     5    12 1   
    14     5    17 1   
    15     5    18 1   
    16     6     7 1   
    17     8    19 1   
    18     9    12 2   
    19    10    12 2   
@<TRIPOS>SUBSTRUCTURE
     1 AZM         1 TEMP              0 ****  ****    0 ROOT
