@<TRIPOS>MOLECULE
AZN
   29    31     1     0     0
SMALL
No Charge or Current Charge


@<TRIPOS>ATOM
      1 C2           0.8380     0.0680    -0.5290 ca         1 AZN      -0.206600
      2 C3           0.4170     0.1090    -3.0940 ca         1 AZN      -0.126600
      3 C4          -0.5640     0.0160    -0.3100 ca         1 AZN      -0.188600
      4 C5           1.6980     0.0720     0.5970 ca         1 AZN       0.087100
      5 C8          -1.5390     0.0090    -1.4660 c          1 AZN       0.594300
      6 C9          -1.0700    -0.0290     1.0100 ca         1 AZN       0.035000
      7 C10          1.1780     0.0260     1.9100 ca         1 AZN       0.215100
      8 C11         -1.8620     0.0520    -3.9750 ca         1 AZN      -0.078000
      9 C12          0.0170     0.1480    -5.5100 ca         1 AZN      -0.116000
     10 C14         -1.3650     0.0970    -5.2870 ca         1 AZN      -0.104000
     11 C13         -0.2100    -0.0240     2.1290 ca         1 AZN      -0.219500
     12 C1           1.3910     0.1160    -1.9400 c          1 AZN       0.612300
     13 C6          -0.9810     0.0580    -2.8680 ca         1 AZN      -0.112600
     14 C7           0.9030     0.1540    -4.4220 ca         1 AZN      -0.071000
     15 O6          -0.3960     1.1660     4.4220 o          1 AZN      -0.683200
     16 O4          -2.3580    -0.1270     3.5980 o          1 AZN      -0.683200
     17 O3           2.0750     0.0340     2.9390 oh         1 AZN      -0.485100
     18 O1           3.0590     0.1200     0.4330 oh         1 AZN      -0.578100
     19 O5          -0.3140    -1.3220     4.3690 o          1 AZN      -0.683200
     20 O            2.6030     0.1610    -2.1390 o          1 AZN      -0.589100
     21 O2          -2.7490    -0.0350    -1.2690 o          1 AZN      -0.523100
     22 S1          -0.9070    -0.0840     3.8400 s6         1 AZN       1.267100
     23 H9          -2.1470    -0.0680     1.1630 ha         1 AZN       0.166000
     24 H11         -2.9390     0.0130    -3.8220 ha         1 AZN       0.136000
     25 H12          0.4040     0.1820    -6.5260 ha         1 AZN       0.109000
     26 H14         -2.0530     0.0920    -6.1300 ha         1 AZN       0.110000
     27 H7           1.9730     0.1930    -4.6150 ha         1 AZN       0.131000
     28 H3           2.9580     0.0720     2.5110 ho         1 AZN       0.475000
     29 H1           3.2250     0.1470    -0.5470 ho         1 AZN       0.512000
@<TRIPOS>BOND
     1     1     3 ar  
     2     1     4 ar  
     3     1    12 1   
     4     2    12 1   
     5     2    13 ar  
     6     2    14 ar  
     7     3     5 1   
     8     3     6 ar  
     9     4     7 ar  
    10     4    18 1   
    11     5    13 1   
    12     5    21 2   
    13     6    11 ar  
    14     6    23 1   
    15     7    11 ar  
    16     7    17 1   
    17     8    10 ar  
    18     8    13 ar  
    19     8    24 1   
    20     9    10 ar  
    21     9    14 ar  
    22     9    25 1   
    23    10    26 1   
    24    11    22 1   
    25    12    20 2   
    26    14    27 1   
    27    15    22 1   
    28    16    22 1   
    29    17    28 1   
    30    18    29 1   
    31    19    22 1   
@<TRIPOS>SUBSTRUCTURE
     1 AZN         1 TEMP              0 ****  ****    0 ROOT
