@<TRIPOS>MOLECULE
AZN
   29    31     1     0     0
SMALL
bcc


@<TRIPOS>ATOM
      1 C2           0.8050     0.0450    -0.5640 ca         1 AZN      -0.206600
      2 C3           0.4050     0.1000    -3.0550 ca         1 AZN      -0.126600
      3 C4          -0.5840    -0.0070    -0.3350 ca         1 AZN      -0.188600
      4 C5           1.6800     0.0540     0.5200 ca         1 AZN       0.087100
      5 C8          -1.5350    -0.0110    -1.4600 c          1 AZN       0.594300
      6 C9          -1.0630    -0.0480     0.9590 ca         1 AZN       0.017000
      7 C10          1.1770     0.0190     1.8390 ca         1 AZN       0.215100
      8 C11         -1.8430     0.0620    -3.9210 ca         1 AZN      -0.096000
      9 C12          0.0280     0.1680    -5.4300 ca         1 AZN      -0.134000
     10 C14         -1.3440     0.1210    -5.2120 ca         1 AZN      -0.122000
     11 C13         -0.1940    -0.0350     2.0450 ca         1 AZN      -0.219500
     12 C1           1.3490     0.0940    -1.9210 c          1 AZN       0.612300
     13 C6          -0.9760     0.0510    -2.8340 ca         1 AZN      -0.112600
     14 C7           0.9000     0.1570    -4.3540 ca         1 AZN      -0.089000
     15 O6          -0.4380     1.2260     4.3000 o          1 AZN      -0.683200
     16 O4          -2.3090    -0.1790     3.5470 o          1 AZN      -0.683200
     17 O3           2.0150     0.0400     2.8730 oh         1 AZN      -0.446100
     18 O1           3.0060     0.1000     0.4090 oh         1 AZN      -0.539100
     19 O5          -0.2430    -1.2310     4.3610 o          1 AZN      -0.683200
     20 O            2.5610     0.1330    -2.1160 o          1 AZN      -0.589100
     21 O2          -2.7360    -0.0620    -1.2800 o          1 AZN      -0.523100
     22 S1          -0.8530    -0.0580     3.7200 s6         1 AZN       1.267100
     23 H9          -2.1290    -0.0890     1.1330 ha         1 AZN       0.184000
     24 H11         -2.9120     0.0260    -3.7580 ha         1 AZN       0.154000
     25 H12          0.4160     0.2130    -6.4380 ha         1 AZN       0.127000
     26 H14         -2.0260     0.1300    -6.0510 ha         1 AZN       0.128000
     27 H7           1.9680     0.1950    -4.5230 ha         1 AZN       0.149000
     28 H3           2.9310     0.0750     2.5670 ho         1 AZN       0.436000
     29 H1           3.2300     0.1270    -0.5490 ho         1 AZN       0.473000
@<TRIPOS>BOND
     1     1     3 ar  
     2     1     4 ar  
     3     1    12 1   
     4     2    12 1   
     5     2    13 ar  
     6     2    14 ar  
     7     3     5 1   
     8     3     6 ar  
     9     4     7 ar  
    10     4    18 1   
    11     5    13 1   
    12     5    21 2   
    13     6    11 ar  
    14     6    23 1   
    15     7    11 ar  
    16     7    17 1   
    17     8    10 ar  
    18     8    13 ar  
    19     8    24 1   
    20     9    10 ar  
    21     9    14 ar  
    22     9    25 1   
    23    10    26 1   
    24    11    22 1   
    25    12    20 2   
    26    14    27 1   
    27    15    22 1   
    28    16    22 1   
    29    17    28 1   
    30    18    29 1   
    31    19    22 1   
@<TRIPOS>SUBSTRUCTURE
     1 AZN         1 TEMP              0 ****  ****    0 ROOT
