@<TRIPOS>MOLECULE
AZO
   47    49     1     0     0
SMALL
No Charge or Current Charge


@<TRIPOS>ATOM
      1 N1          -5.7870     0.9100    -2.6410 n1         1 AZO      -0.441000
      2 C1          -5.2820     0.1440    -1.9180 cg         1 AZO       0.327000
      3 C2          -4.6790    -0.8080    -1.0260 ca         1 AZO      -0.012000
      4 C3          -5.4620    -1.8440    -0.4780 ca         1 AZO      -0.062000
      5 C4          -4.8850    -2.7830     0.3940 ca         1 AZO      -0.114000
      6 C5          -3.5220    -2.6950     0.7210 ca         1 AZO      -0.082000
      7 C6          -2.7350    -1.6650     0.1790 ca         1 AZO      -0.112000
      8 C7          -3.3120    -0.7130    -0.6870 ca         1 AZO       0.152100
      9 O1          -2.5330     0.2870    -1.2340 os         1 AZO      -0.362400
     10 C8          -1.5790     0.9550    -0.5080 ca         1 AZO       0.356300
     11 C9          -0.3480     1.2170    -1.1150 ca         1 AZO      -0.251000
     12 C10          0.6310     1.8680    -0.3560 ca         1 AZO       0.371300
     13 N3           0.3850     2.2720     0.9060 nb         1 AZO      -0.249000
     14 C11         -0.8380     1.9950     1.3980 ca         1 AZO       0.184900
     15 N2          -1.8330     1.3500     0.7570 nb         1 AZO      -0.273000
     16 O2           1.8680     2.0600    -0.9210 os         1 AZO      -0.349400
     17 C12          3.0360     1.8120    -0.2300 ca         1 AZO       0.132100
     18 C13          4.0410     2.7950    -0.2650 ca         1 AZO      -0.102000
     19 C14          5.2510     2.5970     0.4200 ca         1 AZO      -0.097000
     20 C15          5.4620     1.4100     1.1390 ca         1 AZO      -0.112000
     21 C16          4.4670     0.4170     1.1670 ca         1 AZO      -0.078000
     22 C17          3.2510     0.6000     0.4800 ca         1 AZO      -0.016800
     23 C18          2.2310    -0.4940     0.5210 ce         1 AZO      -0.220400
     24 C19          1.9260    -1.1950    -0.7700 c          1 AZO       0.614300
     25 O3           2.5030    -0.9720    -1.8250 o          1 AZO      -0.473000
     26 O4           0.8900    -2.0860    -0.6400 os         1 AZO      -0.461100
     27 C20          0.4360    -2.7770    -1.8170 c3         1 AZO       0.157900
     28 C21          1.6020    -0.8190     1.6760 c2         1 AZO       0.076100
     29 O5           1.8480    -0.1740     2.8610 os         1 AZO      -0.315100
     30 C22          1.0570    -0.5270     4.0060 c3         1 AZO       0.140900
     31 H3          -6.5190    -1.9230    -0.7290 ha         1 AZO       0.129000
     32 H4          -5.4940    -3.5810     0.8130 ha         1 AZO       0.123000
     33 H5          -3.0740    -3.4270     1.3910 ha         1 AZO       0.121000
     34 H6          -1.6790    -1.6110     0.4280 ha         1 AZO       0.132000
     35 H9          -0.1450     0.8930    -2.1300 ha         1 AZO       0.165000
     36 H11         -1.0410     2.3170     2.4190 h5         1 AZO       0.051100
     37 H13          3.8760     3.7150    -0.8200 ha         1 AZO       0.129000
     38 H14          6.0230     3.3630     0.3950 ha         1 AZO       0.116000
     39 H15          6.3980     1.2550     1.6720 ha         1 AZO       0.115000
     40 H16          4.6420    -0.5030     1.7200 ha         1 AZO       0.115000
     41 H201         0.0800    -2.0660    -2.5740 h1         1 AZO       0.047033
     42 H202         1.2440    -3.3780    -2.2550 h1         1 AZO       0.047033
     43 H203        -0.3930    -3.4510    -1.5670 h1         1 AZO       0.047033
     44 H21          0.8500    -1.6080     1.7380 h4         1 AZO       0.190000
     45 H221         1.3600     0.0680     4.8770 h1         1 AZO       0.048033
     46 H222        -0.0080    -0.3380     3.8170 h1         1 AZO       0.048033
     47 H223         1.1840    -1.5880     4.2560 h1         1 AZO       0.048033
@<TRIPOS>BOND
     1     1     2 3   
     2     2     3 1   
     3     3     4 ar  
     4     3     8 ar  
     5     4     5 ar  
     6     4    31 1   
     7     5     6 ar  
     8     5    32 1   
     9     6     7 ar  
    10     6    33 1   
    11     7     8 ar  
    12     7    34 1   
    13     8     9 1   
    14     9    10 1   
    15    10    11 ar  
    16    10    15 ar  
    17    11    12 ar  
    18    11    35 1   
    19    12    13 ar  
    20    12    16 1   
    21    13    14 ar  
    22    14    15 ar  
    23    14    36 1   
    24    16    17 1   
    25    17    18 ar  
    26    17    22 ar  
    27    18    19 ar  
    28    18    37 1   
    29    19    20 ar  
    30    19    38 1   
    31    20    21 ar  
    32    20    39 1   
    33    21    22 ar  
    34    21    40 1   
    35    22    23 1   
    36    23    24 1   
    37    23    28 2   
    38    24    25 2   
    39    24    26 1   
    40    26    27 1   
    41    27    41 1   
    42    27    42 1   
    43    27    43 1   
    44    28    29 1   
    45    28    44 1   
    46    29    30 1   
    47    30    45 1   
    48    30    46 1   
    49    30    47 1   
@<TRIPOS>SUBSTRUCTURE
     1 AZO         1 TEMP              0 ****  ****    0 ROOT
