@<TRIPOS>MOLECULE
AZO
   47    49     1     0     0
SMALL
abcg2


@<TRIPOS>ATOM
      1 N1          -4.3340     2.4770    -1.3330 n1         1 AZO      -0.441000
      2 C1          -4.5460     1.4160    -0.9380 cg         1 AZO       0.327000
      3 C2          -4.8100     0.1040    -0.4490 ca         1 AZO      -0.012000
      4 C3          -6.0360    -0.1980     0.1420 ca         1 AZO      -0.062000
      5 C4          -6.2750    -1.4800     0.6060 ca         1 AZO      -0.114000
      6 C5          -5.2970    -2.4570     0.4770 ca         1 AZO      -0.082000
      7 C6          -4.0710    -2.1630    -0.1060 ca         1 AZO      -0.112000
      8 C7          -3.8330    -0.8840    -0.5680 ca         1 AZO       0.152100
      9 O1          -2.6570    -0.6060    -1.2130 os         1 AZO      -0.362400
     10 C8          -1.6930     0.0700    -0.5640 ca         1 AZO       0.356300
     11 C9          -0.5250     0.3370    -1.2560 ca         1 AZO      -0.251000
     12 C10          0.4280     1.0320    -0.5270 ca         1 AZO       0.371300
     13 N3           0.2370     1.4300     0.7200 nb         1 AZO      -0.249000
     14 C11         -0.9190     1.1050     1.2640 ca         1 AZO       0.184900
     15 N2          -1.9030     0.4350     0.6870 nb         1 AZO      -0.273000
     16 O2           1.5810     1.3240    -1.1350 os         1 AZO      -0.349400
     17 C12          2.6580     1.7210    -0.3680 ca         1 AZO       0.132100
     18 C13          3.0870     3.0310    -0.4580 ca         1 AZO      -0.102000
     19 C14          4.2040     3.4270     0.2670 ca         1 AZO      -0.097000
     20 C15          4.8670     2.5140     1.0750 ca         1 AZO      -0.112000
     21 C16          4.4200     1.2020     1.1490 ca         1 AZO      -0.078000
     22 C17          3.3090     0.7800     0.4240 ca         1 AZO      -0.016800
     23 C18          2.8300    -0.6160     0.4770 ce         1 AZO      -0.220400
     24 C19          3.0150    -1.4280    -0.7300 c          1 AZO       0.614300
     25 O3           3.5730    -1.0220    -1.7240 o          1 AZO      -0.473000
     26 O4           2.5110    -2.6550    -0.6310 os         1 AZO      -0.461100
     27 C20          2.6750    -3.5260    -1.7470 c3         1 AZO       0.157900
     28 C21          2.2490    -1.1230     1.5810 c2         1 AZO       0.076100
     29 O5           2.0770    -0.3970     2.6680 os         1 AZO      -0.315100
     30 C22          1.3870    -1.0220     3.7470 c3         1 AZO       0.140900
     31 H3          -6.7890     0.5720     0.2340 ha         1 AZO       0.129000
     32 H4          -7.2250    -1.7180     1.0630 ha         1 AZO       0.123000
     33 H5          -5.4850    -3.4600     0.8360 ha         1 AZO       0.121000
     34 H6          -3.3080    -2.9230    -0.2080 ha         1 AZO       0.132000
     35 H9          -0.3620     0.0190    -2.2750 ha         1 AZO       0.165000
     36 H11         -1.0840     1.4210     2.2880 h5         1 AZO       0.051100
     37 H13          2.5580     3.7330    -1.0890 ha         1 AZO       0.129000
     38 H14          4.5490     4.4500     0.2010 ha         1 AZO       0.116000
     39 H15          5.7360     2.8200     1.6410 ha         1 AZO       0.115000
     40 H16          4.9440     0.4880     1.7700 ha         1 AZO       0.115000
     41 H201         2.1870    -3.1320    -2.6390 h1         1 AZO       0.047033
     42 H202         3.7280    -3.7050    -1.9650 h1         1 AZO       0.047033
     43 H203         2.2030    -4.4630    -1.4650 h1         1 AZO       0.047033
     44 H21          1.8990    -2.1520     1.6150 h4         1 AZO       0.190000
     45 H221         1.3460    -0.2980     4.5550 h1         1 AZO       0.048033
     46 H222         0.3700    -1.2930     3.4580 h1         1 AZO       0.048033
     47 H223         1.9160    -1.9130     4.0880 h1         1 AZO       0.048033
@<TRIPOS>BOND
     1     1     2 3   
     2     2     3 1   
     3     3     4 ar  
     4     3     8 ar  
     5     4     5 ar  
     6     4    31 1   
     7     5     6 ar  
     8     5    32 1   
     9     6     7 ar  
    10     6    33 1   
    11     7     8 ar  
    12     7    34 1   
    13     8     9 1   
    14     9    10 1   
    15    10    11 ar  
    16    10    15 ar  
    17    11    12 ar  
    18    11    35 1   
    19    12    13 ar  
    20    12    16 1   
    21    13    14 ar  
    22    14    15 ar  
    23    14    36 1   
    24    16    17 1   
    25    17    18 ar  
    26    17    22 ar  
    27    18    19 ar  
    28    18    37 1   
    29    19    20 ar  
    30    19    38 1   
    31    20    21 ar  
    32    20    39 1   
    33    21    22 ar  
    34    21    40 1   
    35    22    23 1   
    36    23    24 1   
    37    23    28 2   
    38    24    25 2   
    39    24    26 1   
    40    26    27 1   
    41    27    41 1   
    42    27    42 1   
    43    27    43 1   
    44    28    29 1   
    45    28    44 1   
    46    29    30 1   
    47    30    45 1   
    48    30    46 1   
    49    30    47 1   
@<TRIPOS>SUBSTRUCTURE
     1 AZO         1 TEMP              0 ****  ****    0 ROOT
