@<TRIPOS>MOLECULE
AZP
   89    90     1     0     0
SMALL
No Charge or Current Charge


@<TRIPOS>ATOM
      1 N            3.4000     0.2790     0.4450 ns         1 AZP      -0.483900
      2 CAI          4.6170    -0.2040     0.8280 c          1 AZP       0.641100
      3 OAH          5.5750     0.3500     0.0390 os         1 AZP      -0.452100
      4 CAG          6.9370    -0.0350     0.2820 c3         1 AZP       0.231900
      5 CAE          7.8280     0.6990    -0.7120 ca         1 AZP      -0.102300
      6 CAD          8.3810     1.9520    -0.3800 ca         1 AZP      -0.084500
      7 CAC          9.2040     2.6290    -1.2980 ca         1 AZP      -0.114500
      8 CAB          9.4780     2.0580    -2.5520 ca         1 AZP      -0.097000
      9 CAA          8.9280     0.8090    -2.8890 ca         1 AZP      -0.114500
     10 CAF          8.1040     0.1320    -1.9720 ca         1 AZP      -0.084500
     11 OAL          4.8080    -1.0060     1.7280 o          1 AZP      -0.555000
     12 CA           2.1000    -0.0910     1.0470 c3         1 AZP       0.050700
     13 CB           1.6230     0.9910     2.0580 c3         1 AZP      -0.081400
     14 CG           2.4870     1.1590     3.3390 c3         1 AZP      -0.057700
     15 CD1          2.0440     2.4050     4.1410 c3         1 AZP      -0.092100
     16 CD2          2.4670    -0.0990     4.2400 c3         1 AZP      -0.092100
     17 C            1.0410    -0.2970    -0.0730 c          1 AZP       0.583100
     18 O            1.1730     0.1420    -1.2090 o          1 AZP      -0.598100
     19 NAS         -0.0810    -1.0040     0.3130 ns         1 AZP      -0.487900
     20 CAT         -1.2180    -1.3440    -0.5740 c3         1 AZP       0.030700
     21 CAV         -1.0840    -2.7880    -1.1200 c3         1 AZP      -0.042100
     22 CAW          0.2400    -3.0410    -1.8320 ca         1 AZP      -0.091300
     23 CBF          1.3100    -3.6560    -1.1500 ca         1 AZP      -0.097000
     24 CBG          2.5370    -3.8710    -1.8020 ca         1 AZP      -0.106000
     25 CBH          2.7000    -3.4780    -3.1410 ca         1 AZP      -0.105000
     26 CBI          1.6370    -2.8670    -3.8270 ca         1 AZP      -0.106000
     27 CBJ          0.4110    -2.6490    -3.1740 ca         1 AZP      -0.097000
     28 CAU         -2.5540    -1.1600     0.1930 c          1 AZP       0.586100
     29 OAY         -2.6340    -1.2590     1.4130 o          1 AZP      -0.561100
     30 NAX         -3.6440    -0.8270    -0.6020 ns         1 AZP      -0.386500
     31 NAZ         -4.9390    -0.6930     0.0500 n          1 AZP      -0.289400
     32 CBA         -5.7110    -1.9260     0.3250 c3         1 AZP       0.119000
     33 CBB         -6.3130    -2.5430    -0.9530 c3         1 AZP      -0.186400
     34 CBC         -7.1220    -3.8170    -0.7210 c          1 AZP       0.607100
     35 NBE         -7.6700    -4.3680    -1.8230 nt         1 AZP      -0.611000
     36 OBD         -7.2820    -4.3320     0.3720 o          1 AZP      -0.598100
     37 CBK         -5.4770     0.6050     0.2800 c          1 AZP       0.625100
     38 OBL         -6.5950     0.7480     0.7610 o          1 AZP      -0.554100
     39 CBM         -4.5870     1.8120    -0.0600 c3         1 AZP      -0.190400
     40 CBO         -5.1450     3.2050     0.3280 c3         1 AZP       0.134300
     41 OBN         -6.1210     3.6040    -0.6660 oh         1 AZP      -0.620000
     42 CBP         -4.0100     4.2660     0.4960 c          1 AZP       0.553100
     43 OBQ         -3.9650     5.3200    -0.1290 o          1 AZP      -0.486000
     44 OBR         -3.1040     3.9050     1.4620 os         1 AZP      -0.445100
     45 CBS         -1.9950     4.7830     1.7170 c3         1 AZP       0.166600
     46 CBT         -1.1100     4.1060     2.7770 c3         1 AZP      -0.099100
     47 HN           3.4060     0.9050    -0.3510 hn         1 AZP       0.341500
     48 HAG1         7.2380     0.2230     1.3060 h1         1 AZP       0.055200
     49 HAG2         7.0630    -1.1190     0.1560 h1         1 AZP       0.055200
     50 HAD          8.1720     2.4030     0.5880 ha         1 AZP       0.114000
     51 HAC          9.6280     3.5960    -1.0360 ha         1 AZP       0.115000
     52 HAB         10.1150     2.5820    -3.2620 ha         1 AZP       0.114000
     53 HAA          9.1380     0.3670    -3.8600 ha         1 AZP       0.115000
     54 HAF          7.6800    -0.8330    -2.2410 ha         1 AZP       0.114000
     55 HA           2.2010    -1.0570     1.5560 h1         1 AZP       0.091700
     56 HB1          1.5740     1.9520     1.5310 hc         1 AZP       0.054700
     57 HB2          0.5940     0.7640     2.3670 hc         1 AZP       0.054700
     58 HG           3.5260     1.3330     3.0320 hc         1 AZP       0.055700
     59 HD11         1.0080     2.3010     4.4850 hc         1 AZP       0.035700
     60 HD12         2.6840     2.5490     5.0190 hc         1 AZP       0.035700
     61 HD13         2.1120     3.3090     3.5230 hc         1 AZP       0.035700
     62 HD21         2.8700    -0.9730     3.7170 hc         1 AZP       0.035700
     63 HD22         3.0780     0.0590     5.1370 hc         1 AZP       0.035700
     64 HD23         1.4450    -0.3330     4.5610 hc         1 AZP       0.035700
     65 HAS         -0.1270    -1.3020     1.2820 hn         1 AZP       0.335500
     66 HAT         -1.2320    -0.6440    -1.4200 h1         1 AZP       0.094700
     67 HAV1        -1.2020    -3.4950    -0.2890 hc         1 AZP       0.059700
     68 HAV2        -1.9180    -2.9910    -1.8040 hc         1 AZP       0.059700
     69 HBF          1.1940    -3.9600    -0.1120 ha         1 AZP       0.111500
     70 HBG          3.3600    -4.3420    -1.2690 ha         1 AZP       0.114500
     71 HBH          3.6500    -3.6440    -3.6450 ha         1 AZP       0.111000
     72 HBI          1.7630    -2.5610    -4.8630 ha         1 AZP       0.114500
     73 HBJ         -0.4050    -2.1710    -3.7110 ha         1 AZP       0.111500
     74 HAX         -3.5730    -0.7940    -1.6160 hn         1 AZP       0.334500
     75 HBA1        -5.0440    -2.6580     0.8000 h1         1 AZP       0.086700
     76 HBA2        -6.5150    -1.7130     1.0430 h1         1 AZP       0.086700
     77 HBB1        -6.9480    -1.8300    -1.4930 hc         1 AZP       0.058700
     78 HBB2        -5.5470    -2.7610    -1.7060 hc         1 AZP       0.058700
     79 HBE1        -7.5340    -3.9370    -2.7250 hn         1 AZP       0.315000
     80 HBE2        -8.2160    -5.2120    -1.7330 hn         1 AZP       0.315000
     81 HBM1        -4.3080     1.7590    -1.1190 hc         1 AZP       0.078200
     82 HBM2        -3.6190     1.6240     0.4160 hc         1 AZP       0.078200
     83 HBO         -5.6080     3.1330     1.3230 h1         1 AZP       0.120700
     84 HBN         -6.0680     4.5840    -0.7460 ho         1 AZP       0.453000
     85 HBS1        -2.3410     5.7560     2.0910 h1         1 AZP       0.051700
     86 HBS2        -1.4070     4.9480     0.8040 h1         1 AZP       0.051700
     87 HBT1        -0.2400     4.7320     3.0020 hc         1 AZP       0.048033
     88 HBT2        -1.6710     3.9490     3.7060 hc         1 AZP       0.048033
     89 HBT3        -0.7520     3.1350     2.4150 hc         1 AZP       0.048033
@<TRIPOS>BOND
     1     1     2 1   
     2     1    12 1   
     3     1    47 1   
     4     2     3 1   
     5     2    11 2   
     6     3     4 1   
     7     4     5 1   
     8     4    48 1   
     9     4    49 1   
    10     5     6 ar  
    11     5    10 ar  
    12     6     7 ar  
    13     6    50 1   
    14     7     8 ar  
    15     7    51 1   
    16     8     9 ar  
    17     8    52 1   
    18     9    10 ar  
    19     9    53 1   
    20    10    54 1   
    21    12    13 1   
    22    12    17 1   
    23    12    55 1   
    24    13    14 1   
    25    13    56 1   
    26    13    57 1   
    27    14    15 1   
    28    14    16 1   
    29    14    58 1   
    30    15    59 1   
    31    15    60 1   
    32    15    61 1   
    33    16    62 1   
    34    16    63 1   
    35    16    64 1   
    36    17    18 2   
    37    17    19 1   
    38    19    20 1   
    39    19    65 1   
    40    20    21 1   
    41    20    28 1   
    42    20    66 1   
    43    21    22 1   
    44    21    67 1   
    45    21    68 1   
    46    22    23 ar  
    47    22    27 ar  
    48    23    24 ar  
    49    23    69 1   
    50    24    25 ar  
    51    24    70 1   
    52    25    26 ar  
    53    25    71 1   
    54    26    27 ar  
    55    26    72 1   
    56    27    73 1   
    57    28    29 2   
    58    28    30 1   
    59    30    31 1   
    60    30    74 1   
    61    31    32 1   
    62    31    37 1   
    63    32    33 1   
    64    32    75 1   
    65    32    76 1   
    66    33    34 1   
    67    33    77 1   
    68    33    78 1   
    69    34    35 1   
    70    34    36 2   
    71    35    79 1   
    72    35    80 1   
    73    37    38 2   
    74    37    39 1   
    75    39    40 1   
    76    39    81 1   
    77    39    82 1   
    78    40    41 1   
    79    40    42 1   
    80    40    83 1   
    81    41    84 1   
    82    42    43 2   
    83    42    44 1   
    84    44    45 1   
    85    45    46 1   
    86    45    85 1   
    87    45    86 1   
    88    46    87 1   
    89    46    88 1   
    90    46    89 1   
@<TRIPOS>SUBSTRUCTURE
     1 AZP         1 TEMP              0 ****  ****    0 ROOT
