@<TRIPOS>MOLECULE
AZP
   89    90     1     0     0
SMALL
bcc


@<TRIPOS>ATOM
      1 N            3.2520     0.6330     0.8400 ns         1 AZP      -0.550900
      2 CAI          4.1320    -0.3870     0.7970 c          1 AZP       0.757100
      3 OAH          5.2030    -0.0540     0.0700 os         1 AZP      -0.428900
      4 CAG          6.2540    -1.0220    -0.0210 c3         1 AZP       0.208700
      5 CAE          7.2520    -0.4950    -1.0060 ca         1 AZP      -0.102300
      6 CAD          8.4540     0.0550    -0.5760 ca         1 AZP      -0.102500
      7 CAC          9.3710     0.5520    -1.4940 ca         1 AZP      -0.132500
      8 CAB          9.0890     0.5080    -2.8520 ca         1 AZP      -0.115000
      9 CAA          7.8870    -0.0370    -3.2900 ca         1 AZP      -0.132500
     10 CAF          6.9760    -0.5350    -2.3710 ca         1 AZP      -0.102500
     11 OAL          3.9970    -1.4580     1.3530 o          1 AZP      -0.604000
     12 CA           1.9370     0.4980     1.4120 c3         1 AZP       0.050700
     13 CB           1.5590     1.7260     2.2410 c3         1 AZP      -0.081400
     14 CG           2.4910     2.0070     3.4210 c3         1 AZP      -0.057700
     15 CD1          2.0150     3.2560     4.1560 c3         1 AZP      -0.092100
     16 CD2          2.5860     0.8240     4.3780 c3         1 AZP      -0.092100
     17 C            0.9120     0.3040     0.2950 c          1 AZP       0.650100
     18 O            0.9140     1.0140    -0.6960 o          1 AZP      -0.598100
     19 NAS          0.0150    -0.6690     0.5250 ns         1 AZP      -0.554900
     20 CAT         -1.0030    -1.0590    -0.4080 c3         1 AZP       0.030700
     21 CAV         -0.6840    -2.4290    -1.0430 c3         1 AZP      -0.042100
     22 CAW          0.6060    -2.3820    -1.8100 ca         1 AZP      -0.091300
     23 CBF          1.8190    -2.6750    -1.1930 ca         1 AZP      -0.115000
     24 CBG          3.0110    -2.5900    -1.9000 ca         1 AZP      -0.124000
     25 CBH          3.0070    -2.2100    -3.2350 ca         1 AZP      -0.123000
     26 CBI          1.8020    -1.9140    -3.8590 ca         1 AZP      -0.124000
     27 CBJ          0.6130    -1.9990    -3.1500 ca         1 AZP      -0.115000
     28 CAU         -2.3430    -1.1240     0.3100 c          1 AZP       0.653100
     29 OAY         -2.4490    -1.3880     1.4880 o          1 AZP      -0.561100
     30 NAX         -3.4080    -0.8850    -0.4940 ns         1 AZP      -0.453500
     31 NAZ         -4.6810    -0.9840    -0.0130 n          1 AZP      -0.356400
     32 CBA         -5.3010    -2.2990    -0.0620 c3         1 AZP       0.119000
     33 CBB         -5.7280    -2.6520    -1.4780 c3         1 AZP      -0.186400
     34 CBC         -6.3380    -4.0370    -1.5700 c          1 AZP       0.674100
     35 NBE         -6.5990    -4.4510    -2.8180 nt         1 AZP      -0.678000
     36 OBD         -6.5760    -4.7120    -0.5790 o          1 AZP      -0.598100
     37 CBK         -5.2810     0.1080     0.5460 c          1 AZP       0.692100
     38 OBL         -6.3860     0.0350     1.0460 o          1 AZP      -0.554100
     39 CBM         -4.4750     1.3900     0.5150 c3         1 AZP      -0.190400
     40 CBO         -5.3240     2.6130     0.8660 c3         1 AZP       0.111100
     41 OBN         -6.3730     2.8240    -0.0260 oh         1 AZP      -0.557800
     42 CBP         -4.4070     3.8300     0.9210 c          1 AZP       0.602100
     43 OBQ         -4.4500     4.7310     0.1220 o          1 AZP      -0.535000
     44 OBR         -3.5490     3.7520     1.9190 os         1 AZP      -0.421900
     45 CBS         -2.5320     4.7650     2.0270 c3         1 AZP       0.143400
     46 CBT         -1.6140     4.3720     3.1580 c3         1 AZP      -0.099100
     47 HN           3.4330     1.4480     0.2730 hn         1 AZP       0.341500
     48 HAG1         6.7140    -1.1710     0.9580 h1         1 AZP       0.055200
     49 HAG2         5.8550    -1.9830    -0.3530 h1         1 AZP       0.055200
     50 HAD          8.6790     0.0920     0.4830 ha         1 AZP       0.132000
     51 HAC         10.3050     0.9740    -1.1470 ha         1 AZP       0.133000
     52 HAB          9.8030     0.8920    -3.5680 ha         1 AZP       0.132000
     53 HAA          7.6620    -0.0770    -4.3480 ha         1 AZP       0.133000
     54 HAF          6.0430    -0.9630    -2.7200 ha         1 AZP       0.132000
     55 HA           1.9470    -0.3810     2.0570 h1         1 AZP       0.091700
     56 HB1          1.5230     2.6030     1.5870 hc         1 AZP       0.054700
     57 HB2          0.5410     1.5790     2.6170 hc         1 AZP       0.054700
     58 HG           3.4920     2.2100     3.0250 hc         1 AZP       0.055700
     59 HD11         1.0250     3.1020     4.5910 hc         1 AZP       0.035700
     60 HD12         2.6950     3.5190     4.9680 hc         1 AZP       0.035700
     61 HD13         1.9480     4.1150     3.4860 hc         1 AZP       0.035700
     62 HD21         3.0700    -0.0420     3.9250 hc         1 AZP       0.035700
     63 HD22         3.1680     1.0900     5.2620 hc         1 AZP       0.035700
     64 HD23         1.5940     0.5130     4.7160 hc         1 AZP       0.035700
     65 HAS          0.1120    -1.2320     1.3570 hn         1 AZP       0.335500
     66 HAT         -1.0440    -0.3040    -1.1960 h1         1 AZP       0.094700
     67 HAV1        -0.6330    -3.1800    -0.2510 hc         1 AZP       0.059700
     68 HAV2        -1.5060    -2.7160    -1.7030 hc         1 AZP       0.059700
     69 HBF          1.8380    -2.9730    -0.1520 ha         1 AZP       0.129500
     70 HBG          3.9440    -2.8330    -1.4080 ha         1 AZP       0.132500
     71 HBH          3.9340    -2.1500    -3.7890 ha         1 AZP       0.129000
     72 HBI          1.7880    -1.6210    -4.9010 ha         1 AZP       0.132500
     73 HBJ         -0.3240    -1.7700    -3.6450 ha         1 AZP       0.129500
     74 HAX         -3.2880    -0.6530    -1.4710 hn         1 AZP       0.334500
     75 HBA1        -4.5870    -3.0270     0.3250 h1         1 AZP       0.086700
     76 HBA2        -6.1540    -2.2960     0.6110 h1         1 AZP       0.086700
     77 HBB1        -6.4620    -1.9260    -1.8390 hc         1 AZP       0.058700
     78 HBB2        -4.8790    -2.5920    -2.1640 hc         1 AZP       0.058700
     79 HBE1        -6.4100    -3.8740    -3.6190 hn         1 AZP       0.315000
     80 HBE2        -7.0430    -5.3400    -2.9790 hn         1 AZP       0.315000
     81 HBM1        -4.0180     1.5350    -0.4680 hc         1 AZP       0.078200
     82 HBM2        -3.6520     1.2930     1.2270 hc         1 AZP       0.078200
     83 HBO         -5.7660     2.4740     1.8560 h1         1 AZP       0.120700
     84 HBN         -6.0180     3.1430    -0.8640 ho         1 AZP       0.414000
     85 HBS1        -3.0000     5.7330     2.2170 h1         1 AZP       0.051700
     86 HBS2        -1.9840     4.8320     1.0860 h1         1 AZP       0.051700
     87 HBT1        -0.8150     5.1080     3.2420 hc         1 AZP       0.048033
     88 HBT2        -2.1400     4.3350     4.1120 hc         1 AZP       0.048033
     89 HBT3        -1.1530     3.4010     2.9770 hc         1 AZP       0.048033
@<TRIPOS>BOND
     1     1     2 1   
     2     1    12 1   
     3     1    47 1   
     4     2     3 1   
     5     2    11 2   
     6     3     4 1   
     7     4     5 1   
     8     4    48 1   
     9     4    49 1   
    10     5     6 ar  
    11     5    10 ar  
    12     6     7 ar  
    13     6    50 1   
    14     7     8 ar  
    15     7    51 1   
    16     8     9 ar  
    17     8    52 1   
    18     9    10 ar  
    19     9    53 1   
    20    10    54 1   
    21    12    13 1   
    22    12    17 1   
    23    12    55 1   
    24    13    14 1   
    25    13    56 1   
    26    13    57 1   
    27    14    15 1   
    28    14    16 1   
    29    14    58 1   
    30    15    59 1   
    31    15    60 1   
    32    15    61 1   
    33    16    62 1   
    34    16    63 1   
    35    16    64 1   
    36    17    18 2   
    37    17    19 1   
    38    19    20 1   
    39    19    65 1   
    40    20    21 1   
    41    20    28 1   
    42    20    66 1   
    43    21    22 1   
    44    21    67 1   
    45    21    68 1   
    46    22    23 ar  
    47    22    27 ar  
    48    23    24 ar  
    49    23    69 1   
    50    24    25 ar  
    51    24    70 1   
    52    25    26 ar  
    53    25    71 1   
    54    26    27 ar  
    55    26    72 1   
    56    27    73 1   
    57    28    29 2   
    58    28    30 1   
    59    30    31 1   
    60    30    74 1   
    61    31    32 1   
    62    31    37 1   
    63    32    33 1   
    64    32    75 1   
    65    32    76 1   
    66    33    34 1   
    67    33    77 1   
    68    33    78 1   
    69    34    35 1   
    70    34    36 2   
    71    35    79 1   
    72    35    80 1   
    73    37    38 2   
    74    37    39 1   
    75    39    40 1   
    76    39    81 1   
    77    39    82 1   
    78    40    41 1   
    79    40    42 1   
    80    40    83 1   
    81    41    84 1   
    82    42    43 2   
    83    42    44 1   
    84    44    45 1   
    85    45    46 1   
    86    45    85 1   
    87    45    86 1   
    88    46    87 1   
    89    46    88 1   
    90    46    89 1   
@<TRIPOS>SUBSTRUCTURE
     1 AZP         1 TEMP              0 ****  ****    0 ROOT
