@<TRIPOS>MOLECULE
AZR
   45    45     1     0     0
SMALL
abcg2


@<TRIPOS>ATOM
      1 C7           2.7750     0.5200    -1.0410 c3         1 AZR      -0.111100
      2 S8          -1.6270     5.0280    -1.1490 ss         1 AZR      -0.188400
      3 O9           0.0010    -2.4700     1.4100 o          1 AZR      -0.525100
      4 O10         -0.4030    -0.1280    -2.4770 o          1 AZR      -0.606100
      5 O11         -3.0210    -0.6730    -0.6530 os         1 AZR      -0.243000
      6 N12          3.5260    -1.6250    -0.1000 n7         1 AZR      -0.891300
      7 N13          0.0370    -0.3310    -0.2560 ns         1 AZR      -0.468900
      8 N14         -2.9130     0.6740    -0.5860 n2         1 AZR      -0.286700
      9 N15         -0.1800     2.9090    -1.1250 nc         1 AZR      -0.694000
     10 N16          1.0660     4.8810    -1.3430 nv         1 AZR      -1.050900
     11 S17          4.4270    -1.8540     1.3100 s6         1 AZR       1.356700
     12 C18          2.4850    -0.6030    -0.0580 c3         1 AZR       0.220500
     13 C19          1.1190    -1.2710    -0.3430 c3         1 AZR      -0.017300
     14 C20          0.8850    -2.4370     0.5930 c          1 AZR       0.597900
     15 C21         -0.6410     0.1350    -1.3120 c          1 AZR       0.544800
     16 C22         -1.7600     1.0790    -0.9380 ce         1 AZR       0.223300
     17 C23         -4.0710    -1.1800     0.1880 c3         1 AZR       0.031000
     18 C24         -1.4880     2.5100    -1.0330 cc         1 AZR       0.337700
     19 C25         -2.4170     3.5000    -1.0340 cd         1 AZR      -0.249000
     20 C26         -0.0910     4.2010    -1.1930 cd         1 AZR       0.698300
     21 C27         -3.7030    -0.9360     1.6450 c3         1 AZR      -0.087600
     22 C28         -5.4120    -0.5390    -0.1620 c3         1 AZR      -0.087600
     23 C29         -4.1580    -2.6980    -0.1310 c          1 AZR       0.737000
     24 O30         -3.6530    -3.0940    -1.1920 o          1 AZR      -0.709500
     25 O31         -4.7810    -3.3760     0.7090 o          1 AZR      -0.709500
     26 O32          5.0640    -0.5760     1.6720 o          1 AZR      -0.714533
     27 O33          3.4220    -2.2820     2.2960 o          1 AZR      -0.714533
     28 O34          5.3910    -2.8920     0.9230 o          1 AZR      -0.714533
     29 H7           2.0070     1.2910    -1.0110 hc         1 AZR       0.036700
     30 H7A          3.7310     0.9820    -0.7920 hc         1 AZR       0.036700
     31 H7B          2.8330     0.1380    -2.0620 hc         1 AZR       0.036700
     32 HN12         4.1410    -1.5130    -0.8980 hn         1 AZR       0.436000
     33 HN13        -0.2850    -0.0790     0.6660 hn         1 AZR       0.325500
     34 HN16         1.0930     5.8570    -1.1020 hn         1 AZR       0.473500
     35 HN1A         1.9080     4.3750    -1.1200 hn         1 AZR       0.473500
     36 H18          2.4320    -0.1670     0.9450 h1         1 AZR       0.057700
     37 H19          1.1530    -1.6800    -1.3580 h1         1 AZR       0.092700
     38 H20          1.5830    -3.2740     0.4620 h4         1 AZR       0.019200
     39 H25         -3.4910     3.4210    -0.9870 h4         1 AZR       0.170000
     40 H27         -3.6600     0.1320     1.8690 hc         1 AZR       0.027367
     41 H27A        -4.4440    -1.3840     2.3030 hc         1 AZR       0.027367
     42 H27B        -2.7310    -1.3740     1.8810 hc         1 AZR       0.027367
     43 H28         -5.6500    -0.6750    -1.2180 hc         1 AZR       0.027367
     44 H28A        -6.2010    -1.0120     0.4220 hc         1 AZR       0.027367
     45 H28B        -5.4240     0.5280     0.0580 hc         1 AZR       0.027367
@<TRIPOS>BOND
     1     1    12 1   
     2     1    29 1   
     3     1    30 1   
     4     1    31 1   
     5     2    19 1   
     6     2    20 1   
     7     3    14 2   
     8     4    15 2   
     9     5     8 1   
    10     5    17 1   
    11     6    11 1   
    12     6    12 1   
    13     6    32 1   
    14     7    13 1   
    15     7    15 1   
    16     7    33 1   
    17     8    16 2   
    18     9    18 1   
    19     9    20 2   
    20    10    20 1   
    21    10    34 1   
    22    10    35 1   
    23    11    26 1   
    24    11    27 1   
    25    11    28 1   
    26    12    13 1   
    27    12    36 1   
    28    13    14 1   
    29    13    37 1   
    30    14    38 1   
    31    15    16 1   
    32    16    18 1   
    33    17    21 1   
    34    17    22 1   
    35    17    23 1   
    36    18    19 2   
    37    19    39 1   
    38    21    40 1   
    39    21    41 1   
    40    21    42 1   
    41    22    43 1   
    42    22    44 1   
    43    22    45 1   
    44    23    24 1   
    45    23    25 1   
@<TRIPOS>SUBSTRUCTURE
     1 AZR         1 TEMP              0 ****  ****    0 ROOT
