@<TRIPOS>MOLECULE
AZR
   45    45     1     0     0
SMALL
No Charge or Current Charge


@<TRIPOS>ATOM
      1 C7           2.8240     0.3890     0.9260 c3         1 AZR      -0.111100
      2 S8          -2.9440     4.8920    -2.1280 ss         1 AZR      -0.188400
      3 O9           0.0070    -3.2210    -0.6090 o          1 AZR      -0.525100
      4 O10          1.0330     1.2630    -1.7890 o          1 AZR      -0.606100
      5 O11         -2.8230    -0.1520    -0.5720 os         1 AZR      -0.243000
      6 N12          3.7040    -1.8350     0.4870 n7         1 AZR      -0.891300
      7 N13          0.2880    -0.4510    -0.5100 ns         1 AZR      -0.468900
      8 N14         -2.0400     0.8840    -0.0050 n2         1 AZR      -0.286700
      9 N15         -0.8430     3.3490    -2.4380 nc         1 AZR      -0.694000
     10 N16         -0.7630     5.1730    -3.7540 nv         1 AZR      -1.050900
     11 S17          4.0830    -3.0530     1.5240 s6         1 AZR       1.356700
     12 C18          2.4510    -1.0900     0.6780 c3         1 AZR       0.220500
     13 C19          1.5200    -1.2890    -0.5530 c3         1 AZR      -0.017300
     14 C20          1.1490    -2.7800    -0.7310 c          1 AZR       0.597900
     15 C21          0.1230     0.7890    -1.1150 c          1 AZR       0.544800
     16 C22         -1.2330     1.4430    -0.8630 ce         1 AZR       0.223300
     17 C23         -3.7370    -0.7890     0.3770 c3         1 AZR       0.031000
     18 C24         -1.6290     2.7310    -1.4830 cc         1 AZR       0.337700
     19 C25         -2.8000     3.4100    -1.1970 cd         1 AZR      -0.249000
     20 C26         -1.4120     4.4490    -2.8380 cd         1 AZR       0.698300
     21 C27         -2.8870    -1.4410     1.5100 c3         1 AZR      -0.087600
     22 C28         -4.7030     0.3000     0.9340 c3         1 AZR      -0.087600
     23 C29         -4.5800    -1.9050    -0.3590 c          1 AZR       0.737000
     24 O30         -4.4180    -2.0870    -1.5610 o          1 AZR      -0.709500
     25 O31         -5.3780    -2.5640     0.2980 o          1 AZR      -0.709500
     26 O32          4.4530    -2.2880     2.7130 o          1 AZR      -0.714533
     27 O33          2.8360    -3.8150     1.6040 o          1 AZR      -0.714533
     28 O34          5.1790    -3.7100     0.8120 o          1 AZR      -0.714533
     29 H7           1.9330     0.9830     1.1580 hc         1 AZR       0.036700
     30 H7A          3.5090     0.4800     1.7770 hc         1 AZR       0.036700
     31 H7B          3.3100     0.8250     0.0440 hc         1 AZR       0.036700
     32 HN12         4.4480    -1.2320     0.8210 hn         1 AZR       0.436000
     33 HN13        -0.5230    -0.8070    -0.0120 hn         1 AZR       0.325500
     34 HN16        -1.0100     6.1530    -3.8200 hn         1 AZR       0.473500
     35 HN1A         0.2130     4.9390    -3.8800 hn         1 AZR       0.473500
     36 H18          1.9130    -1.4330     1.5750 h1         1 AZR       0.057700
     37 H19          2.0930    -1.0210    -1.4500 h1         1 AZR       0.092700
     38 H20          1.9900    -3.4500    -1.0180 h4         1 AZR       0.019200
     39 H25         -3.5740     3.1210    -0.4970 h4         1 AZR       0.170000
     40 H27         -2.3340    -0.6930     2.0900 hc         1 AZR       0.027367
     41 H27A        -3.5310    -1.9830     2.2130 hc         1 AZR       0.027367
     42 H27B        -2.1690    -2.1560     1.0910 hc         1 AZR       0.027367
     43 H28         -5.2200     0.8130     0.1140 hc         1 AZR       0.027367
     44 H28A        -5.4640    -0.1530     1.5810 hc         1 AZR       0.027367
     45 H28B        -4.1740     1.0500     1.5340 hc         1 AZR       0.027367
@<TRIPOS>BOND
     1     1    12 1   
     2     1    29 1   
     3     1    30 1   
     4     1    31 1   
     5     2    19 1   
     6     2    20 1   
     7     3    14 2   
     8     4    15 2   
     9     5     8 1   
    10     5    17 1   
    11     6    11 1   
    12     6    12 1   
    13     6    32 1   
    14     7    13 1   
    15     7    15 1   
    16     7    33 1   
    17     8    16 2   
    18     9    18 1   
    19     9    20 2   
    20    10    20 1   
    21    10    34 1   
    22    10    35 1   
    23    11    26 1   
    24    11    27 1   
    25    11    28 1   
    26    12    13 1   
    27    12    36 1   
    28    13    14 1   
    29    13    37 1   
    30    14    38 1   
    31    15    16 1   
    32    16    18 1   
    33    17    21 1   
    34    17    22 1   
    35    17    23 1   
    36    18    19 2   
    37    19    39 1   
    38    21    40 1   
    39    21    41 1   
    40    21    42 1   
    41    22    43 1   
    42    22    44 1   
    43    22    45 1   
    44    23    24 1   
    45    23    25 1   
@<TRIPOS>SUBSTRUCTURE
     1 AZR         1 TEMP              0 ****  ****    0 ROOT
