@<TRIPOS>MOLECULE
AZS
   18    17     1     0     0
SMALL
bcc


@<TRIPOS>ATOM
      1 OXT         12.3390   -33.6890   -22.7880 o          1 AZS      -0.823800
      2 C           13.5520   -33.8780   -22.9870 c          1 AZS       0.935600
      3 O           14.5100   -33.2870   -22.4520 o          1 AZS      -0.823800
      4 CA          13.9370   -34.9410   -24.0540 c3         1 AZS       0.012500
      5 N           12.8140   -35.7950   -24.3840 n8         1 AZS      -0.881800
      6 CB          14.5300   -34.1870   -25.2390 c3         1 AZS       0.116400
      7 OG          14.9640   -35.1540   -26.2090 os         1 AZS      -0.423900
      8 CH          15.4090   -34.7090   -27.3780 c2         1 AZS       0.469100
      9 CI          15.7790   -35.8190   -28.2310 ce         1 AZS       0.121700
     10 NJ          16.2330   -35.5250   -29.4120 n1         1 AZS      -0.295700
     11 NK          16.6250   -35.2590   -30.4250 n1         1 AZS      -0.043000
     12 OH          15.4950   -33.5420   -27.6880 o          1 AZS      -0.386000
     13 HA          14.7340   -35.5600   -23.6260 h1         1 AZS       0.056700
     14 HN1         11.9950   -35.2190   -24.5320 hn         1 AZS       0.328800
     15 HN2         12.9870   -36.2990   -25.2450 hn         1 AZS       0.328800
     16 HB1         13.7780   -33.5300   -25.6880 h1         1 AZS       0.056200
     17 HB2         15.3800   -33.5790   -24.9260 h1         1 AZS       0.056200
     18 HI          15.7070   -36.8650   -27.9790 h4         1 AZS       0.199000
@<TRIPOS>BOND
     1     1     2 1   
     2     2     3 1   
     3     2     4 1   
     4     4     5 1   
     5     4     6 1   
     6     4    13 1   
     7     5    14 1   
     8     5    15 1   
     9     6     7 1   
    10     6    16 1   
    11     6    17 1   
    12     7     8 1   
    13     8     9 2   
    14     8    12 1   
    15     9    10 1   
    16     9    18 1   
    17    10    11 3   
@<TRIPOS>SUBSTRUCTURE
     1 AZS         1 TEMP              0 ****  ****    0 ROOT
