@<TRIPOS>MOLECULE
AZS
   18    17     1     0     0
SMALL
No Charge or Current Charge


@<TRIPOS>ATOM
      1 OXT         12.6320   -33.0550   -23.1180 o          1 AZS      -0.718500
      2 C           13.5850   -33.7940   -22.9030 c          1 AZS       0.725000
      3 O           14.2300   -33.7700   -21.8620 o          1 AZS      -0.718500
      4 CA          13.9530   -34.8810   -23.9860 c3         1 AZS       0.012500
      5 N           12.8930   -35.9220   -24.2990 n8         1 AZS      -0.992200
      6 CB          14.4480   -34.1670   -25.2720 c3         1 AZS       0.139600
      7 OG          14.8690   -35.1730   -26.2200 os         1 AZS      -0.447100
      8 CH          15.3660   -34.7810   -27.4410 c2         1 AZS       0.469100
      9 CI          15.7580   -35.7570   -28.2980 ce         1 AZS       0.071700
     10 NJ          16.2510   -35.4840   -29.4980 n1         1 AZS      -0.295700
     11 NK          16.6780   -35.2980   -30.5350 n1         1 AZS      -0.043000
     12 OH          15.4540   -33.5910   -27.7510 o          1 AZS      -0.386000
     13 HA          14.8180   -35.4260   -23.5840 h1         1 AZS       0.056700
     14 HN1         12.0370   -35.4410   -24.6030 hn         1 AZS       0.384000
     15 HN2         13.1940   -36.4320   -25.1390 hn         1 AZS       0.384000
     16 HB1         13.6380   -33.5540   -25.6900 h1         1 AZS       0.056200
     17 HB2         15.2830   -33.5000   -25.0160 h1         1 AZS       0.056200
     18 HI          15.6830   -36.8120   -28.0290 h4         1 AZS       0.249000
@<TRIPOS>BOND
     1     1     2 1   
     2     2     3 1   
     3     2     4 1   
     4     4     5 1   
     5     4     6 1   
     6     4    13 1   
     7     5    14 1   
     8     5    15 1   
     9     6     7 1   
    10     6    16 1   
    11     6    17 1   
    12     7     8 1   
    13     8     9 2   
    14     8    12 1   
    15     9    10 1   
    16     9    18 1   
    17    10    11 3   
@<TRIPOS>SUBSTRUCTURE
     1 AZS         1 TEMP              0 ****  ****    0 ROOT
