@<TRIPOS>MOLECULE
AZU
   33    33     1     0     0
SMALL
bcc


@<TRIPOS>ATOM
      1 C01          6.4870     0.1260     0.0050 c3         1 AZU      -0.084767
      2 C02          5.1080    -0.5380     0.0100 c3         1 AZU      -0.049000
      3 C03          4.9560    -1.4110    -1.2360 c3         1 AZU      -0.084767
      4 C04          4.9550    -1.3930     1.2690 c3         1 AZU      -0.084767
      5 C05          4.0870     0.5920     0.0020 c3         1 AZU       0.148400
      6 O06          2.7640     0.0330     0.0050 os         1 AZU      -0.415900
      7 C07          1.7390     0.8570    -0.0020 c          1 AZU       0.657100
      8 O08          1.8150     2.0590    -0.0080 o          1 AZU      -0.522000
      9 C09          0.4370     0.0980     0.0010 c3         1 AZU      -0.113300
     10 S10         -0.8980     1.3150     0.0070 ss         1 AZU      -0.032300
     11 C11         -2.2650     0.2310     0.0120 cc         1 AZU       0.263200
     12 N12         -2.1510    -1.0400     0.0020 nd         1 AZU      -0.421300
     13 N13         -3.2610    -1.7820     0.0080 ns         1 AZU      -0.321900
     14 C14         -4.5430    -1.3210     0.0220 c          1 AZU       0.815500
     15 O15         -5.5150    -2.0420     0.0270 o          1 AZU      -0.609500
     16 N16         -4.6270     0.0570     0.0300 ns         1 AZU      -0.598500
     17 C17         -3.5690     0.9210     0.0270 c          1 AZU       0.626200
     18 O18         -3.6790     2.1250     0.0350 o          1 AZU      -0.556500
     19 H1           6.6300     0.7440    -0.8840 hc         1 AZU       0.038367
     20 H2           6.6280     0.7650     0.8800 hc         1 AZU       0.038367
     21 H3           7.2750    -0.6280     0.0150 hc         1 AZU       0.038367
     22 H4           5.0340    -0.8190    -2.1500 hc         1 AZU       0.038367
     23 H5           5.7390    -2.1710    -1.2650 hc         1 AZU       0.038367
     24 H6           3.9970    -1.9300    -1.2550 hc         1 AZU       0.038367
     25 H7           5.7370    -2.1530     1.3100 hc         1 AZU       0.038367
     26 H8           5.0320    -0.7870     2.1750 hc         1 AZU       0.038367
     27 H9           3.9950    -1.9110     1.2950 hc         1 AZU       0.038367
     28 H10          4.2110     1.2270     0.8830 h1         1 AZU       0.052700
     29 H11          4.2130     1.2160    -0.8870 h1         1 AZU       0.052700
     30 H12          0.3720    -0.5420    -0.8810 h1         1 AZU       0.103700
     31 H13          0.3760    -0.5460     0.8800 h1         1 AZU       0.103700
     32 H14         -3.1100    -2.7800    -0.0010 hn         1 AZU       0.374500
     33 H15         -5.5610     0.4520     0.0390 hn         1 AZU       0.350500
@<TRIPOS>BOND
     1     1     2 1   
     2     1    19 1   
     3     1    20 1   
     4     1    21 1   
     5     2     3 1   
     6     2     4 1   
     7     2     5 1   
     8     3    22 1   
     9     3    23 1   
    10     3    24 1   
    11     4    25 1   
    12     4    26 1   
    13     4    27 1   
    14     5     6 1   
    15     5    28 1   
    16     5    29 1   
    17     6     7 1   
    18     7     8 2   
    19     7     9 1   
    20     9    10 1   
    21     9    30 1   
    22     9    31 1   
    23    10    11 1   
    24    11    12 2   
    25    11    17 1   
    26    12    13 1   
    27    13    14 1   
    28    13    32 1   
    29    14    15 2   
    30    14    16 1   
    31    16    17 1   
    32    16    33 1   
    33    17    18 2   
@<TRIPOS>SUBSTRUCTURE
     1 AZU         1 TEMP              0 ****  ****    0 ROOT
