@<TRIPOS>MOLECULE
AZU
   33    33     1     0     0
SMALL
No Charge or Current Charge


@<TRIPOS>ATOM
      1 C01          6.5810     0.0160     0.0650 c3         1 AZU      -0.084767
      2 C02          5.1360    -0.5470     0.0910 c3         1 AZU      -0.049000
      3 C03          4.9890    -1.6060    -1.0360 c3         1 AZU      -0.084767
      4 C04          4.8810    -1.2160     1.4690 c3         1 AZU      -0.084767
      5 C05          4.1390     0.6290    -0.1350 c3         1 AZU       0.171600
      6 O06          2.7910     0.1200    -0.1140 os         1 AZU      -0.439100
      7 C07          1.7650     1.0080    -0.2960 c          1 AZU       0.608100
      8 O08          1.9150     2.2100    -0.4740 o          1 AZU      -0.473000
      9 C09          0.4120     0.2980    -0.2430 c3         1 AZU      -0.065400
     10 S10         -1.0240     1.4550    -0.4540 ss         1 AZU      -0.080200
     11 C11         -2.4090     0.3770    -0.2760 cc         1 AZU       0.263200
     12 N12         -2.3250    -0.7810    -0.9370 nd         1 AZU      -0.421300
     13 N13         -3.4130    -1.6220    -0.7610 ns         1 AZU      -0.368400
     14 C14         -4.5450    -1.4110     0.0020 c          1 AZU       0.606000
     15 O15         -5.4520    -2.2160     0.0900 o          1 AZU      -0.534000
     16 N16         -4.5470    -0.2110     0.6500 ns         1 AZU      -0.464500
     17 C17         -3.5670     0.7510     0.6030 c          1 AZU       0.483700
     18 O18         -3.6740     1.7930     1.2350 o          1 AZU      -0.481000
     19 H1           6.7990     0.4930    -0.8980 hc         1 AZU       0.038367
     20 H2           6.7240     0.7650     0.8540 hc         1 AZU       0.038367
     21 H3           7.3170    -0.7820     0.2210 hc         1 AZU       0.038367
     22 H4           5.1470    -1.1520    -2.0220 hc         1 AZU       0.038367
     23 H5           5.7220    -2.4120    -0.9130 hc         1 AZU       0.038367
     24 H6           3.9900    -2.0590    -1.0290 hc         1 AZU       0.038367
     25 H7           5.6110    -2.0130     1.6580 hc         1 AZU       0.038367
     26 H8           4.9620    -0.4840     2.2810 hc         1 AZU       0.038367
     27 H9           3.8810    -1.6640     1.5160 hc         1 AZU       0.038367
     28 H10          4.2780     1.3810     0.6540 h1         1 AZU       0.052700
     29 H11          4.3530     1.1090    -1.1000 h1         1 AZU       0.052700
     30 H12          0.4020    -0.4570    -1.0360 h1         1 AZU       0.103700
     31 H13          0.3380    -0.2110     0.7250 h1         1 AZU       0.103700
     32 H14         -3.4160    -2.5230    -1.2420 hn         1 AZU       0.488000
     33 H15         -5.3530    -0.0140     1.2230 hn         1 AZU       0.350500
@<TRIPOS>BOND
     1     1     2 1   
     2     1    19 1   
     3     1    20 1   
     4     1    21 1   
     5     2     3 1   
     6     2     4 1   
     7     2     5 1   
     8     3    22 1   
     9     3    23 1   
    10     3    24 1   
    11     4    25 1   
    12     4    26 1   
    13     4    27 1   
    14     5     6 1   
    15     5    28 1   
    16     5    29 1   
    17     6     7 1   
    18     7     8 2   
    19     7     9 1   
    20     9    10 1   
    21     9    30 1   
    22     9    31 1   
    23    10    11 1   
    24    11    12 2   
    25    11    17 1   
    26    12    13 1   
    27    13    14 1   
    28    13    32 1   
    29    14    15 2   
    30    14    16 1   
    31    16    17 1   
    32    16    33 1   
    33    17    18 2   
@<TRIPOS>SUBSTRUCTURE
     1 AZU         1 TEMP              0 ****  ****    0 ROOT
