@<TRIPOS>MOLECULE
AZV
   68    70     1     0     0
SMALL
No Charge or Current Charge


@<TRIPOS>ATOM
      1 C           -5.3000    -3.4350     0.7780 c          1 AZV       0.711000
      2 N           -4.3720    -1.6910    -0.8860 nu         1 AZV      -0.912200
      3 O           -5.3630    -4.2700    -0.1190 o          1 AZV      -0.718500
      4 CA          -4.4250    -2.1320     0.5520 c3         1 AZV       0.068500
      5 CB          -2.9980    -2.3150     1.1730 c3         1 AZV      -0.049700
      6 CAA          0.9420     4.5810    -1.1000 c5         1 AZV       0.161700
      7 NAB          0.7640     3.5960     0.0210 n          1 AZV      -0.438800
      8 CAC          1.3580     2.3190    -0.0500 c          1 AZV       0.600100
      9 OAD          1.9660     1.9820    -1.0570 o          1 AZV      -0.564100
     10 CAE          1.1740     1.3610     1.1400 c3         1 AZV      -0.199400
     11 CAF          1.8310    -0.0280     1.0090 c3         1 AZV       0.187500
     12 NAG          1.0930    -0.8390     0.0260 n8         1 AZV      -0.997200
     13 CAH          1.9210    -0.7540     2.3780 c3         1 AZV      -0.023100
     14 CAI          2.5020    -2.1700     2.2960 ca         1 AZV      -0.089300
     15 CAJ          3.8330    -2.3500     1.8600 ca         1 AZV      -0.106000
     16 CAK          4.3830    -3.6400     1.7740 ca         1 AZV       0.109000
     17 FAL          5.6590    -3.7940     1.3510 f          1 AZV      -0.168000
     18 CAM          3.6100    -4.7620     2.1260 ca         1 AZV       0.161000
     19 FAN          4.1340    -6.0060     2.0470 f          1 AZV      -0.159000
     20 CAO          2.2900    -4.5950     2.5690 ca         1 AZV      -0.166000
     21 CAP          1.7390    -3.3070     2.6540 ca         1 AZV       0.212000
     22 FAQ          0.4670    -3.1740     3.0960 f          1 AZV      -0.164000
     23 CAR         -0.0910     4.4860    -2.2850 c          1 AZV       0.611100
     24 OAS         -0.0500     5.0880    -3.3530 o          1 AZV      -0.594100
     25 NAT         -1.0920     3.5930    -1.9700 ns         1 AZV      -0.481900
     26 CAV         -3.6490     1.9350    -1.2140 ca         1 AZV      -0.046500
     27 CAW         -2.8110     1.9310    -2.3450 ca         1 AZV      -0.244300
     28 CAX         -2.5180     0.7150    -2.9910 ca         1 AZV      -0.046500
     29 CAY         -3.0550    -0.4870    -2.5020 ca         1 AZV      -0.226500
     30 CAZ         -3.8740    -0.4850    -1.3660 ca         1 AZV       0.375000
     31 CBA          0.2010     4.1560     1.2870 c5         1 AZV       0.107000
     32 CBB         -0.4190     5.5210     0.8950 c5         1 AZV       0.034600
     33 SBC          0.8170     6.2400    -0.2650 ss         1 AZV      -0.397000
     34 CBD         -4.1800     0.7280    -0.7300 ca         1 AZV      -0.226500
     35 CG1         -2.0650    -3.2370     0.3460 c3         1 AZV      -0.080100
     36 CG2         -2.3050    -0.9770     1.5290 c3         1 AZV      -0.080100
     37 OXT         -5.9700    -3.5110     1.8010 o          1 AZV      -0.718500
     38 HN          -4.3190    -2.4590    -1.5570 hn         1 AZV       0.507000
     39 HA          -4.9360    -1.3510     1.1320 h1         1 AZV       0.043700
     40 HB          -3.1540    -2.8210     2.1350 hc         1 AZV       0.063700
     41 HAA          1.9510     4.4520    -1.5090 h2         1 AZV       0.118700
     42 HAE          1.5480     1.8850     2.0270 hc         1 AZV       0.058700
     43 HAEA         0.1060     1.2940     1.3760 hc         1 AZV       0.058700
     44 HAF          2.8590     0.1070     0.6390 h1         1 AZV       0.077700
     45 HNAG         0.1110    -0.9000     0.3100 hn         1 AZV       0.419000
     46 HNAA         1.0630    -0.3240    -0.8610 hn         1 AZV       0.419000
     47 HAH          2.5480    -0.1530     3.0470 hc         1 AZV       0.045700
     48 HAHA         0.9270    -0.7610     2.8400 hc         1 AZV       0.045700
     49 HAJ          4.4430    -1.4920     1.5860 ha         1 AZV       0.129000
     50 HAO          1.6950    -5.4600     2.8460 ha         1 AZV       0.159000
     51 HNAT        -1.0230     3.1380    -1.0690 hn         1 AZV       0.304500
     52 HAU         -2.9450     4.0310    -2.8290 h1         1 AZV       0.054200
     53 HAUA        -1.8300     3.1080    -3.8690 h1         1 AZV       0.054200
     54 HAV         -3.8810     2.8690    -0.7060 ha         1 AZV       0.097500
     55 HAX         -1.8670     0.6990    -3.8630 ha         1 AZV       0.097500
     56 HAY         -2.8160    -1.4220    -3.0000 ha         1 AZV       0.117000
     57 HBA         -0.5590     3.4970     1.7280 h1         1 AZV       0.056200
     58 HBAA         0.9990     4.2940     2.0280 h1         1 AZV       0.056200
     59 HBB         -1.3800     5.3910     0.3790 h1         1 AZV       0.082200
     60 HBBA        -0.5750     6.1740     1.7640 h1         1 AZV       0.082200
     61 HBD         -4.8220     0.7370     0.1450 ha         1 AZV       0.117000
     62 HG1         -1.8130    -2.7840    -0.6200 hc         1 AZV       0.021700
     63 HG1A        -1.1290    -3.4200     0.8860 hc         1 AZV       0.021700
     64 HG1B        -2.5370    -4.2080     0.1600 hc         1 AZV       0.021700
     65 HG2         -2.9810    -0.3260     2.0960 hc         1 AZV       0.021700
     66 HG2A        -1.4190    -1.1590     2.1470 hc         1 AZV       0.021700
     67 HG2B        -1.9810    -0.4420     0.6290 hc         1 AZV       0.021700
     68 CAU         -2.1960     3.2270    -2.8400 c3         1 AZV       0.164300
@<TRIPOS>BOND
     1     1     3 1   
     2     1     4 1   
     3     1    37 1   
     4     2     4 1   
     5     2    30 1   
     6     2    38 1   
     7     4     5 1   
     8     4    39 1   
     9     5    35 1   
    10     5    36 1   
    11     5    40 1   
    12     6     7 1   
    13     6    23 1   
    14     6    33 1   
    15     6    41 1   
    16     7     8 1   
    17     7    31 1   
    18     8     9 2   
    19     8    10 1   
    20    10    11 1   
    21    10    42 1   
    22    10    43 1   
    23    11    12 1   
    24    11    13 1   
    25    11    44 1   
    26    12    45 1   
    27    12    46 1   
    28    13    14 1   
    29    13    47 1   
    30    13    48 1   
    31    14    15 ar  
    32    14    21 ar  
    33    15    16 ar  
    34    15    49 1   
    35    16    17 1   
    36    16    18 ar  
    37    18    19 1   
    38    18    20 ar  
    39    20    21 ar  
    40    20    50 1   
    41    21    22 1   
    42    23    24 2   
    43    23    25 1   
    44    25    51 1   
    45    25    68 1   
    46    26    27 ar  
    47    26    34 ar  
    48    26    54 1   
    49    27    28 ar  
    50    27    68 1   
    51    28    29 ar  
    52    28    55 1   
    53    29    30 ar  
    54    29    56 1   
    55    30    34 ar  
    56    31    32 1   
    57    31    57 1   
    58    31    58 1   
    59    32    33 1   
    60    32    59 1   
    61    32    60 1   
    62    34    61 1   
    63    35    62 1   
    64    35    63 1   
    65    35    64 1   
    66    36    65 1   
    67    36    66 1   
    68    36    67 1   
    69    52    68 1   
    70    53    68 1   
@<TRIPOS>SUBSTRUCTURE
     1 AZV         1 TEMP              0 ****  ****    0 ROOT
