@<TRIPOS>MOLECULE
AZV
   68    70     1     0     0
SMALL
abcg2


@<TRIPOS>ATOM
      1 C           -4.4690    -4.0620    -0.7110 c          1 AZV       0.711000
      2 N           -2.9890    -2.1040    -0.7420 nu         1 AZV      -0.912200
      3 O           -3.7960    -4.4350    -1.6930 o          1 AZV      -0.718500
      4 CA          -4.0080    -2.7780     0.0260 c3         1 AZV       0.068500
      5 CB          -3.5320    -3.1400     1.4490 c3         1 AZV      -0.049700
      6 CAA          0.9560     4.6340    -1.5940 c5         1 AZV       0.161700
      7 NAB          1.1100     3.9200    -0.3430 n          1 AZV      -0.438800
      8 CAC          1.3360     2.5810    -0.4140 c          1 AZV       0.600100
      9 OAD          1.3430     2.0170    -1.4970 o          1 AZV      -0.564100
     10 CAE          1.5690     1.8590     0.8910 c3         1 AZV      -0.199400
     11 CAF          1.6150     0.3350     0.7480 c3         1 AZV       0.187500
     12 NAG          0.3600    -0.2810     0.3690 n8         1 AZV      -0.997200
     13 CAH          2.1100    -0.2630     2.0710 c3         1 AZV      -0.023100
     14 CAI          2.2320    -1.7560     2.0130 ca         1 AZV      -0.089300
     15 CAJ          3.3500    -2.3530     1.4360 ca         1 AZV      -0.106000
     16 CAK          3.4590    -3.7240     1.3500 ca         1 AZV       0.109000
     17 FAL          4.5400    -4.2850     0.7930 f          1 AZV      -0.168000
     18 CAM          2.4540    -4.5370     1.8410 ca         1 AZV       0.161000
     19 FAN          2.5770    -5.8640     1.7500 f          1 AZV      -0.159000
     20 CAO          1.3330    -3.9830     2.4210 ca         1 AZV      -0.166000
     21 CAP          1.2460    -2.6040     2.4920 ca         1 AZV       0.212000
     22 FAQ          0.1580    -2.0800     3.0710 f          1 AZV      -0.164000
     23 CAR         -0.3370     4.3030    -2.3370 c          1 AZV       0.611100
     24 OAS         -0.3840     4.4340    -3.5500 o          1 AZV      -0.594100
     25 NAT         -1.3700     3.9420    -1.5670 ns         1 AZV      -0.481900
     26 CAV         -3.6380     1.5320    -0.7520 ca         1 AZV      -0.046500
     27 CAW         -2.7860     1.9700    -1.7560 ca         1 AZV      -0.244300
     28 CAX         -2.0230     1.0040    -2.4150 ca         1 AZV      -0.046500
     29 CAY         -2.1120    -0.3320    -2.0840 ca         1 AZV      -0.226500
     30 CAZ         -2.9660    -0.7790    -1.0540 ca         1 AZV       0.375000
     31 CBA          1.2210     4.7360     0.8610 c5         1 AZV       0.107000
     32 CBB          0.5130     6.0380     0.5460 c5         1 AZV       0.034600
     33 SBC          0.9930     6.4040    -1.1630 ss         1 AZV      -0.397000
     34 CBD         -3.7370     0.1930    -0.3990 ca         1 AZV      -0.226500
     35 CG1         -2.3270    -4.0750     1.4180 c3         1 AZV      -0.080100
     36 CG2         -3.2200    -1.9000     2.2760 c3         1 AZV      -0.080100
     37 OXT         -5.4730    -4.6250    -0.2360 o          1 AZV      -0.718500
     38 HN          -2.5630    -2.7200    -1.4200 hn         1 AZV       0.507000
     39 HA          -4.8850    -2.1270     0.1200 h1         1 AZV       0.043700
     40 HB          -4.3650    -3.6650     1.9260 hc         1 AZV       0.063700
     41 HAA          1.7830     4.4410    -2.2810 h2         1 AZV       0.118700
     42 HAE          2.5080     2.2320     1.3180 hc         1 AZV       0.058700
     43 HAEA         0.7900     2.1250     1.6140 hc         1 AZV       0.058700
     44 HAF          2.3490     0.0830    -0.0240 h1         1 AZV       0.077700
     45 HNAG        -0.3610    -0.0780     1.0510 hn         1 AZV       0.419000
     46 HNAA         0.0330     0.0870    -0.5150 hn         1 AZV       0.419000
     47 HAH          3.0860     0.1650     2.3080 hc         1 AZV       0.045700
     48 HAHA         1.4390     0.0390     2.8800 hc         1 AZV       0.045700
     49 HAJ          4.1520    -1.7360     1.0470 ha         1 AZV       0.129000
     50 HAO          0.5440    -4.6130     2.8100 ha         1 AZV       0.159000
     51 HNAT        -1.1960     3.7820    -0.5870 hn         1 AZV       0.304500
     52 HAU         -3.4500     4.0000    -1.6290 h1         1 AZV       0.054200
     53 HAUA        -2.6590     3.6130    -3.1470 h1         1 AZV       0.054200
     54 HAV         -4.2470     2.2530    -0.2170 ha         1 AZV       0.097500
     55 HAX         -1.3460     1.3010    -3.2080 ha         1 AZV       0.097500
     56 HAY         -1.5070    -1.0560    -2.6180 ha         1 AZV       0.117000
     57 HBA          0.7470     4.2420     1.7070 h1         1 AZV       0.056200
     58 HBAA         2.2690     4.9200     1.1110 h1         1 AZV       0.056200
     59 HBB         -0.5690     5.9470     0.6360 h1         1 AZV       0.082200
     60 HBBA         0.8500     6.8480     1.1910 h1         1 AZV       0.082200
     61 HBD         -4.4060    -0.0820     0.4050 ha         1 AZV       0.117000
     62 HG1         -1.4820    -3.6020     0.9140 hc         1 AZV       0.021700
     63 HG1A        -2.0050    -4.3220     2.4310 hc         1 AZV       0.021700
     64 HG1B        -2.5440    -5.0140     0.9090 hc         1 AZV       0.021700
     65 HG2         -4.0890    -1.2440     2.3600 hc         1 AZV       0.021700
     66 HG2A        -2.9150    -2.1740     3.2870 hc         1 AZV       0.021700
     67 HG2B        -2.4040    -1.3270     1.8310 hc         1 AZV       0.021700
     68 CAU         -2.6310     3.4310    -2.0740 c3         1 AZV       0.164300
@<TRIPOS>BOND
     1     1     3 1   
     2     1     4 1   
     3     1    37 1   
     4     2     4 1   
     5     2    30 1   
     6     2    38 1   
     7     4     5 1   
     8     4    39 1   
     9     5    35 1   
    10     5    36 1   
    11     5    40 1   
    12     6     7 1   
    13     6    23 1   
    14     6    33 1   
    15     6    41 1   
    16     7     8 1   
    17     7    31 1   
    18     8     9 2   
    19     8    10 1   
    20    10    11 1   
    21    10    42 1   
    22    10    43 1   
    23    11    12 1   
    24    11    13 1   
    25    11    44 1   
    26    12    45 1   
    27    12    46 1   
    28    13    14 1   
    29    13    47 1   
    30    13    48 1   
    31    14    15 ar  
    32    14    21 ar  
    33    15    16 ar  
    34    15    49 1   
    35    16    17 1   
    36    16    18 ar  
    37    18    19 1   
    38    18    20 ar  
    39    20    21 ar  
    40    20    50 1   
    41    21    22 1   
    42    23    24 2   
    43    23    25 1   
    44    25    51 1   
    45    25    68 1   
    46    26    27 ar  
    47    26    34 ar  
    48    26    54 1   
    49    27    28 ar  
    50    27    68 1   
    51    28    29 ar  
    52    28    55 1   
    53    29    30 ar  
    54    29    56 1   
    55    30    34 ar  
    56    31    32 1   
    57    31    57 1   
    58    31    58 1   
    59    32    33 1   
    60    32    59 1   
    61    32    60 1   
    62    34    61 1   
    63    35    62 1   
    64    35    63 1   
    65    35    64 1   
    66    36    65 1   
    67    36    66 1   
    68    36    67 1   
    69    52    68 1   
    70    53    68 1   
@<TRIPOS>SUBSTRUCTURE
     1 AZV         1 TEMP              0 ****  ****    0 ROOT
