@<TRIPOS>MOLECULE
AZX
   49    50     1     0     0
SMALL
No Charge or Current Charge


@<TRIPOS>ATOM
      1 F29         -6.6040    -2.6410    -0.7730 f          1 AZX      -0.101667
      2 C27         -5.5820    -2.1380    -0.0410 c3         1 AZX       0.285000
      3 F30         -5.7750    -2.5240     1.2420 f          1 AZX      -0.101667
      4 F31         -4.4420    -2.7210    -0.4780 f          1 AZX      -0.101667
      5 C24         -5.5040    -0.5780    -0.1760 c3         1 AZX       0.044000
      6 O25         -5.3980    -0.2160    -1.5860 oh         1 AZX      -0.638000
      7 C26         -6.7880     0.1190     0.3550 c3         1 AZX      -0.090100
      8 C23         -4.2580    -0.0740     0.6340 c          1 AZX       0.580100
      9 O28         -4.2300    -0.0780     1.8600 o          1 AZX      -0.535100
     10 N22         -3.2270     0.4230    -0.1510 ns         1 AZX      -0.141000
     11 C18         -1.9450     0.9560     0.1600 ca         1 AZX       0.043000
     12 C17         -1.3930     0.9310     1.4600 ca         1 AZX      -0.150000
     13 C16         -0.1170     1.4670     1.7090 ca         1 AZX       0.018000
     14 C19         -1.1860     1.5190    -0.8890 ca         1 AZX       0.038000
     15 Cl1         -1.8210     1.5610    -2.5360 cl         1 AZX      -0.192000
     16 C20          0.0890     2.0560    -0.6440 ca         1 AZX       0.023000
     17 C15          0.6260     2.0370     0.6580 ca         1 AZX      -0.288500
     18 S12          2.2690     2.7080     0.9660 sy         1 AZX       1.030000
     19 O14          2.5530     3.6970    -0.0830 o          1 AZX      -0.524000
     20 O15          2.3490     3.0630     2.3900 o          1 AZX      -0.524000
     21 C1           3.3400     1.2810     0.6880 ca         1 AZX      -0.253500
     22 C6           3.6490     0.4070     1.7500 ca         1 AZX      -0.021500
     23 C5           4.4690    -0.7120     1.5260 ca         1 AZX      -0.097000
     24 C2           3.8440     1.0120    -0.6000 ca         1 AZX      -0.021500
     25 C3           4.6650    -0.1080    -0.8180 ca         1 AZX      -0.097000
     26 C4           5.0060    -0.9740     0.2470 ca         1 AZX      -0.088600
     27 C7           5.8730    -2.2040     0.0420 c          1 AZX       0.609700
     28 O8           5.6700    -3.2210     0.6970 o          1 AZX      -0.587100
     29 N9           6.8600    -2.1930    -0.9750 n          1 AZX      -0.403800
     30 C11          7.5430    -3.4540    -1.3380 c3         1 AZX       0.084300
     31 C10          7.5890    -0.9480    -1.3150 c3         1 AZX       0.084300
     32 HO25        -6.1810    -0.5810    -2.0580 ho         1 AZX       0.470000
     33 H261        -6.9520    -0.1060     1.4170 hc         1 AZX       0.070700
     34 H262        -6.7090     1.2080     0.2530 hc         1 AZX       0.070700
     35 H263        -7.6780    -0.2080    -0.1960 hc         1 AZX       0.070700
     36 HN22        -3.4350     0.4010    -1.1430 hn         1 AZX       0.184000
     37 H17         -1.9290     0.4920     2.2950 ha         1 AZX       0.155000
     38 H16          0.2880     1.4320     2.7200 ha         1 AZX       0.143000
     39 H20          0.6530     2.4830    -1.4720 ha         1 AZX       0.151000
     40 H6           3.2540     0.5870     2.7490 ha         1 AZX       0.138500
     41 H5           4.6960    -1.3750     2.3590 ha         1 AZX       0.129500
     42 H2           3.5960     1.6610    -1.4390 ha         1 AZX       0.138500
     43 H3           5.0100    -0.3110    -1.8280 ha         1 AZX       0.129500
     44 H111         8.1230    -3.3190    -2.2600 h1         1 AZX       0.044867
     45 H112         8.2200    -3.7560    -0.5290 h1         1 AZX       0.044867
     46 H113         6.8020    -4.2470    -1.5040 h1         1 AZX       0.044867
     47 H101         7.4180    -0.1760    -0.5550 h1         1 AZX       0.044867
     48 H102         8.6680    -1.1460    -1.3640 h1         1 AZX       0.044867
     49 H103         7.2570    -0.5780    -2.2930 h1         1 AZX       0.044867
@<TRIPOS>BOND
     1     1     2 1   
     2     2     3 1   
     3     2     4 1   
     4     2     5 1   
     5     5     6 1   
     6     5     7 1   
     7     5     8 1   
     8     6    32 1   
     9     7    33 1   
    10     7    34 1   
    11     7    35 1   
    12     8     9 2   
    13     8    10 1   
    14    10    11 1   
    15    10    36 1   
    16    11    12 ar  
    17    11    14 ar  
    18    12    13 ar  
    19    12    37 1   
    20    13    17 ar  
    21    13    38 1   
    22    14    15 1   
    23    14    16 ar  
    24    16    17 ar  
    25    16    39 1   
    26    17    18 1   
    27    18    19 2   
    28    18    20 2   
    29    18    21 1   
    30    21    22 ar  
    31    21    24 ar  
    32    22    23 ar  
    33    22    40 1   
    34    23    26 ar  
    35    23    41 1   
    36    24    25 ar  
    37    24    42 1   
    38    25    26 ar  
    39    25    43 1   
    40    26    27 1   
    41    27    28 2   
    42    27    29 1   
    43    29    30 1   
    44    29    31 1   
    45    30    44 1   
    46    30    45 1   
    47    30    46 1   
    48    31    47 1   
    49    31    48 1   
    50    31    49 1   
@<TRIPOS>SUBSTRUCTURE
     1 AZX         1 TEMP              0 ****  ****    0 ROOT
