@<TRIPOS>MOLECULE
AZX
   49    50     1     0     0
SMALL
abcg2


@<TRIPOS>ATOM
      1 F29         -7.0920    -2.2650    -0.4470 f          1 AZX      -0.101667
      2 C27         -5.9540    -2.0140     0.2050 c3         1 AZX       0.285000
      3 F30         -6.1780    -2.2600     1.4930 f          1 AZX      -0.101667
      4 F31         -5.0490    -2.9020    -0.2300 f          1 AZX      -0.101667
      5 C24         -5.4860    -0.5730    -0.0650 c3         1 AZX       0.044000
      6 O25         -5.5060    -0.3310    -1.4430 oh         1 AZX      -0.638000
      7 C26         -6.4290     0.4340     0.5870 c3         1 AZX      -0.090100
      8 C23         -4.0830    -0.3660     0.5490 c          1 AZX       0.580100
      9 O28         -3.7740    -0.8540     1.6130 o          1 AZX      -0.535100
     10 N22         -3.3010     0.4520    -0.1990 ns         1 AZX      -0.141000
     11 C18         -2.0190     0.9010     0.0770 ca         1 AZX       0.043000
     12 C17         -1.4310     0.8320     1.3420 ca         1 AZX      -0.150000
     13 C16         -0.1580     1.3240     1.5580 ca         1 AZX       0.018000
     14 C19         -1.2780     1.4860    -0.9620 ca         1 AZX       0.038000
     15 CL1         -1.9600     1.6030    -2.5470 cl         1 AZX      -0.192000
     16 C20         -0.0060     1.9810    -0.7560 ca         1 AZX       0.023000
     17 C15          0.5500     1.8900     0.5100 ca         1 AZX      -0.288500
     18 S12          2.1820     2.5170     0.7890 sy         1 AZX       1.030000
     19 O14          2.4510     3.5360    -0.2190 o          1 AZX      -0.524000
     20 O15          2.2970     2.8450     2.2050 o          1 AZX      -0.524000
     21 C1           3.2350     1.1280     0.4600 ca         1 AZX      -0.253500
     22 C6           3.4860     0.2140     1.4750 ca         1 AZX      -0.021500
     23 C5           4.3010    -0.8740     1.2120 ca         1 AZX      -0.097000
     24 C2           3.7950     0.9820    -0.8000 ca         1 AZX      -0.021500
     25 C3           4.6310    -0.0960    -1.0420 ca         1 AZX      -0.097000
     26 C4           4.8910    -1.0230    -0.0390 ca         1 AZX      -0.088600
     27 C7           5.7040    -2.2530    -0.3150 c          1 AZX       0.609700
     28 O8           5.1880    -3.3480    -0.1300 o          1 AZX      -0.587100
     29 N9           6.9510    -2.0840    -0.7830 n          1 AZX      -0.403800
     30 C11          7.7350    -3.2300    -1.1970 c3         1 AZX       0.084300
     31 C10          7.6770    -0.8300    -0.7700 c3         1 AZX       0.084300
     32 HO25        -4.9960    -0.9930    -1.9280 ho         1 AZX       0.470000
     33 H261        -6.4180     0.3500     1.6720 hc         1 AZX       0.070700
     34 H262        -6.1170     1.4440     0.3240 hc         1 AZX       0.070700
     35 H263        -7.4510     0.2950     0.2360 hc         1 AZX       0.070700
     36 HN22        -3.7030     0.7480    -1.0790 hn         1 AZX       0.184000
     37 H17         -1.9700     0.4040     2.1710 ha         1 AZX       0.155000
     38 H16          0.2620     1.2670     2.5530 ha         1 AZX       0.143000
     39 H20          0.5320     2.4340    -1.5780 ha         1 AZX       0.151000
     40 H6           3.0570     0.3350     2.4600 ha         1 AZX       0.138500
     41 H5           4.4920    -1.5960     1.9950 ha         1 AZX       0.129500
     42 H2           3.5970     1.6950    -1.5890 ha         1 AZX       0.138500
     43 H3           5.0790    -0.2080    -2.0220 ha         1 AZX       0.129500
     44 H111         8.2620    -2.9900    -2.1210 h1         1 AZX       0.044867
     45 H112         8.4770    -3.4900    -0.4390 h1         1 AZX       0.044867
     46 H113         7.0980    -4.0910    -1.3730 h1         1 AZX       0.044867
     47 H101         7.1570    -0.0680    -0.1990 h1         1 AZX       0.044867
     48 H102         8.6500    -0.9860    -0.3010 h1         1 AZX       0.044867
     49 H103         7.8460    -0.4580    -1.7820 h1         1 AZX       0.044867
@<TRIPOS>BOND
     1     1     2 1   
     2     2     3 1   
     3     2     4 1   
     4     2     5 1   
     5     5     6 1   
     6     5     7 1   
     7     5     8 1   
     8     6    32 1   
     9     7    33 1   
    10     7    34 1   
    11     7    35 1   
    12     8     9 2   
    13     8    10 1   
    14    10    11 1   
    15    10    36 1   
    16    11    12 ar  
    17    11    14 ar  
    18    12    13 ar  
    19    12    37 1   
    20    13    17 ar  
    21    13    38 1   
    22    14    15 1   
    23    14    16 ar  
    24    16    17 ar  
    25    16    39 1   
    26    17    18 1   
    27    18    19 2   
    28    18    20 2   
    29    18    21 1   
    30    21    22 ar  
    31    21    24 ar  
    32    22    23 ar  
    33    22    40 1   
    34    23    26 ar  
    35    23    41 1   
    36    24    25 ar  
    37    24    42 1   
    38    25    26 ar  
    39    25    43 1   
    40    26    27 1   
    41    27    28 2   
    42    27    29 1   
    43    29    30 1   
    44    29    31 1   
    45    30    44 1   
    46    30    45 1   
    47    30    46 1   
    48    31    47 1   
    49    31    48 1   
    50    31    49 1   
@<TRIPOS>SUBSTRUCTURE
     1 AZX         1 TEMP              0 ****  ****    0 ROOT
