@<TRIPOS>MOLECULE
AZY
   25    25     1     0     0
SMALL
abcg2


@<TRIPOS>ATOM
      1 OXT          4.9710    28.3530    17.6490 o          1 AZY      -0.727000
      2 C            5.4010    28.4070    16.4800 c          1 AZY       0.725000
      3 O            4.7420    28.6330    15.4470 o          1 AZY      -0.727000
      4 CA           6.9300    28.2360    16.3130 c3         1 AZY       0.024500
      5 N            7.2610    27.7800    14.9760 n8         1 AZY      -0.987200
      6 CB           7.5960    29.5730    16.7190 c3         1 AZY      -0.069100
      7 CG           9.0920    29.5290    16.6130 ca         1 AZY      -0.058300
      8 CD2          9.8560    28.9600    17.6260 ca         1 AZY      -0.069000
      9 CD1          9.7570    29.9890    15.4800 ca         1 AZY      -0.098000
     10 CE1         11.1360    29.8870    15.3700 ca         1 AZY      -0.181000
     11 CZ          11.8910    29.3180    16.3850 ca         1 AZY       0.060100
     12 OH          13.2320    29.1950    16.3360 oh         1 AZY      -0.564100
     13 CE2         11.2380    28.8470    17.5330 ca         1 AZY       0.209000
     14 N1          11.8740    28.2570    18.6340 n2         1 AZY      -0.447000
     15 N2          13.0740    28.0470    18.6770 n1         1 AZY       0.259000
     16 N3          14.1460    27.7830    18.8790 n1         1 AZY      -0.092000
     17 HA           7.2700    27.4770    17.0260 h1         1 AZY       0.048700
     18 HN1          6.8080    28.3890    14.3060 hn         1 AZY       0.377500
     19 HN2          8.2580    27.8540    14.8150 hn         1 AZY       0.377500
     20 HB1          7.2060    30.3690    16.0780 hc         1 AZY       0.057700
     21 HB2          7.3020    29.8120    17.7440 hc         1 AZY       0.057700
     22 HD2          9.3740    28.5890    18.5230 ha         1 AZY       0.141000
     23 HD1          9.1950    30.4440    14.6730 ha         1 AZY       0.117000
     24 HE1         11.6360    30.2580    14.4810 ha         1 AZY       0.101000
     25 HOH         13.5770    29.5540    15.5100 ho         1 AZY       0.466000
@<TRIPOS>BOND
     1     1     2 1   
     2     2     3 1   
     3     2     4 1   
     4     4     5 1   
     5     4     6 1   
     6     4    17 1   
     7     5    18 1   
     8     5    19 1   
     9     6     7 1   
    10     6    20 1   
    11     6    21 1   
    12     7     8 ar  
    13     7     9 ar  
    14     8    13 ar  
    15     8    22 1   
    16     9    10 ar  
    17     9    23 1   
    18    10    11 ar  
    19    10    24 1   
    20    11    12 1   
    21    11    13 ar  
    22    12    25 1   
    23    13    14 1   
    24    14    15 1   
    25    15    16 3   
@<TRIPOS>SUBSTRUCTURE
     1 AZY         1 TEMP              0 ****  ****    0 ROOT
