@<TRIPOS>MOLECULE
AZY
   25    25     1     0     0
SMALL
No Charge or Current Charge


@<TRIPOS>ATOM
      1 OXT          5.0010    27.7320    17.7340 o          1 AZY      -0.727000
      2 C            5.4560    28.2430    16.7180 c          1 AZY       0.725000
      3 O            4.7510    28.7330    15.8430 o          1 AZY      -0.727000
      4 CA           7.0240    28.1890    16.4860 c3         1 AZY       0.024500
      5 N            7.5030    27.4650    15.2520 n8         1 AZY      -0.987200
      6 CB           7.6370    29.6140    16.5380 c3         1 AZY      -0.069100
      7 CG           9.1630    29.6280    16.4830 ca         1 AZY      -0.058300
      8 CD2          9.9150    29.1470    17.5720 ca         1 AZY      -0.069000
      9 CD1          9.8330    30.1300    15.3510 ca         1 AZY      -0.098000
     10 CE1         11.2370    30.1470    15.3040 ca         1 AZY      -0.181000
     11 CZ          11.9890    29.6640    16.3880 ca         1 AZY       0.060100
     12 OH          13.3590    29.6970    16.3050 oh         1 AZY      -0.564100
     13 CE2         11.3220    29.1550    17.5360 ca         1 AZY       0.209000
     14 N1          12.0110    28.6820    18.6070 n2         1 AZY      -0.447000
     15 N2          12.4050    27.5050    18.5850 n1         1 AZY       0.259000
     16 N3          12.6750    26.4040    18.6700 n1         1 AZY      -0.092000
     17 HA           7.4350    27.6390    17.3450 h1         1 AZY       0.048700
     18 HN1          7.0620    27.8940    14.4300 hn         1 AZY       0.377500
     19 HN2          8.5020    27.6590    15.1250 hn         1 AZY       0.377500
     20 HB1          7.2170    30.2150    15.7220 hc         1 AZY       0.057700
     21 HB2          7.3060    30.1000    17.4640 hc         1 AZY       0.057700
     22 HD2          9.4070    28.7630    18.4530 ha         1 AZY       0.141000
     23 HD1          9.2640    30.5090    14.5030 ha         1 AZY       0.117000
     24 HE1         11.7350    30.5390    14.4190 ha         1 AZY       0.101000
     25 HOH         13.6120    30.0880    15.4410 ho         1 AZY       0.466000
@<TRIPOS>BOND
     1     1     2 1   
     2     2     3 1   
     3     2     4 1   
     4     4     5 1   
     5     4     6 1   
     6     4    17 1   
     7     5    18 1   
     8     5    19 1   
     9     6     7 1   
    10     6    20 1   
    11     6    21 1   
    12     7     8 ar  
    13     7     9 ar  
    14     8    13 ar  
    15     8    22 1   
    16     9    10 ar  
    17     9    23 1   
    18    10    11 ar  
    19    10    24 1   
    20    11    12 1   
    21    11    13 ar  
    22    12    25 1   
    23    13    14 1   
    24    14    15 1   
    25    15    16 3   
@<TRIPOS>SUBSTRUCTURE
     1 AZY         1 TEMP              0 ****  ****    0 ROOT
