@<TRIPOS>MOLECULE
AZZ
   32    33     1     0     0
SMALL
abcg2


@<TRIPOS>ATOM
      1 O5           2.6480     3.2100     0.1810 oh         1 AZZ      -0.708000
      2 C5           2.6670     1.9410    -0.4260 c3         1 AZZ       0.162600
      3 C4           2.1960     0.9070     0.5670 c5         1 AZZ       0.185300
      4 O4           0.8280     1.1080     0.8720 os         1 AZZ      -0.436000
      5 C3           2.2970    -0.5190     0.0250 c5         1 AZZ       0.137500
      6 N3           3.6140    -1.0580     0.3640 n2         1 AZZ      -0.439200
      7 N4           4.0720    -1.8900    -0.3970 n1         1 AZZ       0.233000
      8 N5           4.5830    -2.6570    -1.0400 n1         1 AZZ      -0.058000
      9 C2           1.1480    -1.2330     0.7310 c5         1 AZZ      -0.127400
     10 C1           0.1830    -0.1080     1.1240 c5         1 AZZ       0.351700
     11 N1          -1.1130    -0.1110     0.4510 n          1 AZZ      -0.318000
     12 C9          -1.1730    -0.0710    -0.9220 c          1 AZZ       0.625000
     13 O2          -0.1930    -0.0750    -1.6380 o          1 AZZ      -0.569000
     14 N2          -2.4430    -0.0310    -1.4350 ns         1 AZZ      -0.468500
     15 C8          -3.6430    -0.0180    -0.7470 c          1 AZZ       0.588200
     16 O1          -4.7010     0.0200    -1.3460 o          1 AZZ      -0.524000
     17 C7          -3.5020    -0.0510     0.6950 cc         1 AZZ      -0.259400
     18 C5A         -4.7310    -0.0360     1.5430 c3         1 AZZ      -0.020900
     19 C6          -2.2590    -0.0880     1.2040 cd         1 AZZ      -0.004400
     20 HO5          2.9290     3.8570    -0.4720 ho         1 AZZ       0.506000
     21 H5           2.0200     1.8980    -1.3120 h1         1 AZZ       0.035200
     22 H5'A         3.6770     1.6550    -0.7460 h1         1 AZZ       0.035200
     23 H4           2.7980     0.9750     1.4840 h1         1 AZZ       0.079700
     24 H3           2.1490    -0.5270    -1.0570 h1         1 AZZ       0.084700
     25 H2           0.6850    -2.0070     0.1220 hc         1 AZZ       0.074700
     26 H2'A         1.5190    -1.7060     1.6420 hc         1 AZZ       0.074700
     27 H1          -0.0600    -0.1920     2.1860 h2         1 AZZ       0.065700
     28 HN3         -2.4980    -0.0060    -2.4460 hn         1 AZZ       0.342500
     29 H5A         -5.3660    -0.8990     1.3400 hc         1 AZZ       0.048367
     30 H5AA        -4.4720    -0.0540     2.6000 hc         1 AZZ       0.048367
     31 H5AB        -5.3310     0.8570     1.3610 hc         1 AZZ       0.048367
     32 H6          -2.1020    -0.1090     2.2740 h4         1 AZZ       0.205000
@<TRIPOS>BOND
     1     1     2 1   
     2     1    20 1   
     3     2     3 1   
     4     2    21 1   
     5     2    22 1   
     6     3     4 1   
     7     3     5 1   
     8     3    23 1   
     9     4    10 1   
    10     5     6 1   
    11     5     9 1   
    12     5    24 1   
    13     6     7 1   
    14     7     8 3   
    15     9    10 1   
    16     9    25 1   
    17     9    26 1   
    18    10    11 1   
    19    10    27 1   
    20    11    12 1   
    21    11    19 1   
    22    12    13 2   
    23    12    14 1   
    24    14    15 1   
    25    14    28 1   
    26    15    16 2   
    27    15    17 1   
    28    17    18 1   
    29    17    19 2   
    30    18    29 1   
    31    18    30 1   
    32    18    31 1   
    33    19    32 1   
@<TRIPOS>SUBSTRUCTURE
     1 AZZ         1 TEMP              0 ****  ****    0 ROOT
