@<TRIPOS>MOLECULE
AZZ
   32    33     1     0     0
SMALL
No Charge or Current Charge


@<TRIPOS>ATOM
      1 O5           3.3550     3.2110     0.2120 oh         1 AZZ      -0.708000
      2 C5           3.1530     1.9200    -0.3980 c3         1 AZZ       0.162600
      3 C4           2.2920     0.9900     0.5030 c5         1 AZZ       0.185300
      4 O4           0.9120     1.4140     0.5150 os         1 AZZ      -0.436000
      5 C3           2.1630    -0.4720    -0.0060 c5         1 AZZ       0.137500
      6 N3           3.3830    -1.2380     0.3580 n2         1 AZZ      -0.439200
      7 N4           3.6990    -2.1700    -0.4000 n1         1 AZZ       0.233000
      8 N5           4.1130    -2.9570    -1.1090 n1         1 AZZ      -0.058000
      9 C2           0.9780    -0.9800     0.8640 c5         1 AZZ      -0.127400
     10 C1           0.1500     0.3270     1.0750 c5         1 AZZ       0.351700
     11 N1          -1.1780     0.1400     0.4290 n          1 AZZ      -0.318000
     12 C9          -1.3370     0.3070    -0.9660 c          1 AZZ       0.625000
     13 O2          -0.4270     0.5180    -1.7500 o          1 AZZ      -0.569000
     14 N2          -2.6060     0.1840    -1.4350 ns         1 AZZ      -0.468500
     15 C8          -3.7420    -0.0900    -0.7450 c          1 AZZ       0.588200
     16 O1          -4.8190    -0.1700    -1.3140 o          1 AZZ      -0.524000
     17 C7          -3.5380    -0.2780     0.7080 cc         1 AZZ      -0.259400
     18 C5A         -4.7730    -0.5940     1.5190 c3         1 AZZ      -0.020900
     19 C6          -2.2730    -0.1580     1.2430 cd         1 AZZ      -0.004400
     20 HO5          3.8520     3.7620    -0.4370 ho         1 AZZ       0.506000
     21 H5           2.6570     2.0250    -1.3720 h1         1 AZZ       0.035200
     22 H5'A         4.1220     1.4340    -0.5720 h1         1 AZZ       0.035200
     23 H4           2.6860     1.0160     1.5290 h1         1 AZZ       0.079700
     24 H3           1.9430    -0.5080    -1.0830 h1         1 AZZ       0.084700
     25 H2           0.4190    -1.7850     0.3730 hc         1 AZZ       0.074700
     26 H2'A         1.3120    -1.3670     1.8340 hc         1 AZZ       0.074700
     27 H1          -0.0210     0.5060     2.1440 h2         1 AZZ       0.065700
     28 HN3         -2.7150     0.3050    -2.4280 hn         1 AZZ       0.342500
     29 H5A         -5.2440    -1.5230     1.1740 hc         1 AZZ       0.048367
     30 H5AA        -4.5330    -0.7190     2.5810 hc         1 AZZ       0.048367
     31 H5AB        -5.5140     0.2110     1.4390 hc         1 AZZ       0.048367
     32 H6          -2.0410    -0.2780     2.2990 h4         1 AZZ       0.205000
@<TRIPOS>BOND
     1     1     2 1   
     2     1    20 1   
     3     2     3 1   
     4     2    21 1   
     5     2    22 1   
     6     3     4 1   
     7     3     5 1   
     8     3    23 1   
     9     4    10 1   
    10     5     6 1   
    11     5     9 1   
    12     5    24 1   
    13     6     7 1   
    14     7     8 3   
    15     9    10 1   
    16     9    25 1   
    17     9    26 1   
    18    10    11 1   
    19    10    27 1   
    20    11    12 1   
    21    11    19 1   
    22    12    13 2   
    23    12    14 1   
    24    14    15 1   
    25    14    28 1   
    26    15    16 2   
    27    15    17 1   
    28    17    18 1   
    29    17    19 2   
    30    18    29 1   
    31    18    30 1   
    32    18    31 1   
    33    19    32 1   
@<TRIPOS>SUBSTRUCTURE
     1 AZZ         1 TEMP              0 ****  ****    0 ROOT
