@<TRIPOS>MOLECULE
AUX
   54    55     1     0     0
SMALL
No Charge or Current Charge


@<TRIPOS>ATOM
      1 C           -6.6820    -0.9190     0.7150 c          1 AUX       0.720000
      2 N           -5.2780    -1.3560    -1.4500 n7         1 AUX      -0.900400
      3 O           -7.5780    -1.5510     0.1670 o          1 AUX      -0.714500
      4 CA          -5.2830    -0.8190    -0.0170 c3         1 AUX      -0.016500
      5 CB          -4.7250     0.6500     0.0430 c3         1 AUX       0.190300
      6 CE          -1.3130     2.3610     1.1010 c2         1 AUX      -0.137200
      7 CH           1.2150     2.4830     0.9120 c3         1 AUX      -0.021200
      8 CN          -4.0130    -1.9670    -1.9000 c3         1 AUX       0.167100
      9 CZ          -0.1890     2.3290     0.3680 c2         1 AUX      -0.298200
     10 CAA          2.0250     1.1790     0.7830 c3         1 AUX      -0.100400
     11 CAB          5.1330    -1.9500     2.2920 ca         1 AUX      -0.165000
     12 CAC          5.9050    -2.2360     1.1570 ca         1 AUX       0.039000
     13 CAD          4.3020    -0.8180     2.3010 ca         1 AUX      -0.006000
     14 CAE          6.5090    -0.9060    -2.2610 ca         1 AUX      -0.082000
     15 CAF          5.6730     0.2200    -2.2670 ca         1 AUX      -0.024000
     16 CAG          6.5850    -1.7140    -1.1160 ca         1 AUX      -0.060000
     17 CAH          4.9170     0.5460    -1.1280 ca         1 AUX      -0.131000
     18 CAI          3.4610     1.3020     1.3440 c3         1 AUX       0.025600
     19 CAJ          5.8270    -1.3970     0.0290 ca         1 AUX      -0.079000
     20 CAK          4.9870    -0.2520     0.0430 ca         1 AUX       0.024700
     21 NAL          4.2480     0.0550     1.2090 na         1 AUX       0.061300
     22 OG1         -4.6740     1.0680    -1.3180 oh         1 AUX      -0.670000
     23 CG2         -3.3150     0.7890     0.7130 c3         1 AUX      -0.084700
     24 OXT         -6.8180    -0.3850     1.8080 o          1 AUX      -0.714500
     25 HN          -6.0070    -2.0890    -1.4920 hn         1 AUX       0.459000
     26 HA          -4.6310    -1.4680     0.5800 h1         1 AUX       0.029700
     27 HB          -5.4240     1.2910     0.5980 h1         1 AUX       0.087700
     28 HE          -1.2650     2.5170     2.1810 ha         1 AUX       0.157000
     29 HH           1.7340     3.2890     0.3770 hc         1 AUX       0.041700
     30 HHA          1.1840     2.7800     1.9680 hc         1 AUX       0.041700
     31 HNA         -4.1130    -2.3340    -2.9290 h1         1 AUX       0.003367
     32 HNB         -3.1950    -1.2350    -1.8740 h1         1 AUX       0.003367
     33 HNC         -3.7420    -2.8140    -1.2560 h1         1 AUX       0.003367
     34 HZ          -0.2410     2.1830    -0.7130 ha         1 AUX       0.178000
     35 HAA          1.4990     0.3760     1.3150 hc         1 AUX       0.067700
     36 HAAA         2.0660     0.8840    -0.2730 hc         1 AUX       0.067700
     37 HAD          3.6850    -0.5840     3.1700 h4         1 AUX       0.178000
     38 HAE          7.0930    -1.1550    -3.1440 ha         1 AUX       0.151000
     39 HAF          5.6110     0.8430    -3.1580 ha         1 AUX       0.150000
     40 HAG          7.2310    -2.5900    -1.1250 ha         1 AUX       0.145000
     41 HAH          4.2800     1.4240    -1.1800 ha         1 AUX       0.152000
     42 HAI          3.9930     2.1260     0.8520 h1         1 AUX       0.085700
     43 HAIA         3.4040     1.5680     2.4070 h1         1 AUX       0.085700
     44 HOG1        -4.8830     0.1870    -1.7440 ho         1 AUX       0.458000
     45 HG2         -2.6370     0.0940     0.2030 hc         1 AUX       0.037700
     46 CD1         -3.3500     0.3830     2.2130 c3         1 AUX      -0.082100
     47 CD2         -2.7180     2.2200     0.5470 c3         1 AUX      -0.056200
     48 HAB          5.1740    -2.6060     3.1590 ha         1 AUX       0.171000
     49 HD1         -3.9850     1.0700     2.7860 hc         1 AUX       0.026367
     50 HD1A        -3.7370    -0.6320     2.3530 hc         1 AUX       0.026367
     51 HD1B        -2.3460     0.4010     2.6520 hc         1 AUX       0.026367
     52 HD2         -3.3820     2.9510     1.0270 hc         1 AUX       0.063700
     53 HD2A        -2.7010     2.4850    -0.5170 hc         1 AUX       0.063700
     54 HAC          6.5480    -3.1150     1.1490 ha         1 AUX       0.157000
@<TRIPOS>BOND
     1     1     3 1   
     2     1     4 1   
     3     1    24 1   
     4     2     4 1   
     5     2     8 1   
     6     2    25 1   
     7     4     5 1   
     8     4    26 1   
     9     5    22 1   
    10     5    23 1   
    11     5    27 1   
    12     6     9 2   
    13     6    28 1   
    14     6    47 1   
    15     7     9 1   
    16     7    10 1   
    17     7    29 1   
    18     7    30 1   
    19     8    31 1   
    20     8    32 1   
    21     8    33 1   
    22     9    34 1   
    23    10    18 1   
    24    10    35 1   
    25    10    36 1   
    26    11    12 ar  
    27    11    13 ar  
    28    11    48 1   
    29    12    19 ar  
    30    12    54 1   
    31    13    21 1   
    32    13    37 1   
    33    14    15 ar  
    34    14    16 ar  
    35    14    38 1   
    36    15    17 ar  
    37    15    39 1   
    38    16    19 ar  
    39    16    40 1   
    40    17    20 ar  
    41    17    41 1   
    42    18    21 1   
    43    18    42 1   
    44    18    43 1   
    45    19    20 ar  
    46    20    21 2   
    47    22    44 1   
    48    23    45 1   
    49    23    46 1   
    50    23    47 1   
    51    46    49 1   
    52    46    50 1   
    53    46    51 1   
    54    47    52 1   
    55    47    53 1   
@<TRIPOS>SUBSTRUCTURE
     1 AUX         1 TEMP              0 ****  ****    0 ROOT
