@<TRIPOS>MOLECULE
AUX
   54    55     1     0     0
SMALL
abcg2


@<TRIPOS>ATOM
      1 C           -6.5770    -0.5630    -0.7690 c          1 AUX       0.720000
      2 N           -4.3050    -1.5380    -0.9790 n7         1 AUX      -0.900400
      3 O           -6.8540    -1.3170    -1.7240 o          1 AUX      -0.714500
      4 CA          -5.1440    -0.6620    -0.1770 c3         1 AUX      -0.016500
      5 CB          -4.5020     0.7340    -0.1240 c3         1 AUX       0.190300
      6 CE          -1.2580     2.3250     1.2650 c2         1 AUX      -0.137200
      7 CH           1.2500     2.4140     1.2030 c3         1 AUX      -0.021200
      8 CN          -3.5270    -2.5060    -0.2330 c3         1 AUX       0.167100
      9 CZ          -0.1130     2.3760     0.5890 c2         1 AUX      -0.298200
     10 CAA          2.0290     1.1330     0.9040 c3         1 AUX      -0.100400
     11 CAB          5.0450    -2.0710     1.9450 ca         1 AUX      -0.165000
     12 CAC          5.5880    -2.3480     0.7200 ca         1 AUX       0.039000
     13 CAD          4.3690    -0.8700     2.1200 ca         1 AUX      -0.006000
     14 CAE          5.8600    -0.7670    -2.6160 ca         1 AUX      -0.082000
     15 CAF          5.1610     0.4300    -2.3810 ca         1 AUX      -0.024000
     16 CAG          6.0040    -1.6780    -1.6090 ca         1 AUX      -0.060000
     17 CAH          4.6140     0.7120    -1.1550 ca         1 AUX      -0.131000
     18 CAI          3.4570     1.2370     1.4180 c3         1 AUX       0.025600
     19 CAJ          5.4550    -1.4250    -0.3330 ca         1 AUX      -0.079000
     20 CAK          4.7540    -0.2160    -0.1090 ca         1 AUX       0.024700
     21 NAL          4.2320     0.0140     1.1440 na         1 AUX       0.061300
     22 OG1         -4.2550     1.1230    -1.4600 oh         1 AUX      -0.670000
     23 CG2         -3.2270     0.8210     0.7320 c3         1 AUX      -0.084700
     24 OXT         -7.3430     0.2460    -0.2150 o          1 AUX      -0.714500
     25 HN          -4.9240    -2.0190    -1.6230 hn         1 AUX       0.459000
     26 HA          -5.2700    -1.0560     0.8420 h1         1 AUX       0.029700
     27 HB          -5.2300     1.4370     0.2930 h1         1 AUX       0.087700
     28 HE          -1.2180     2.3350     2.3520 ha         1 AUX       0.157000
     29 HH           1.8070     3.2700     0.8060 hc         1 AUX       0.041700
     30 HHA          1.1750     2.5580     2.2840 hc         1 AUX       0.041700
     31 HNA         -3.0060    -3.1700    -0.9240 h1         1 AUX       0.003367
     32 HNB         -2.7670    -2.0140     0.3740 h1         1 AUX       0.003367
     33 HNC         -4.1290    -3.1310     0.4410 h1         1 AUX       0.003367
     34 HZ          -0.1450     2.3640    -0.4990 ha         1 AUX       0.178000
     35 HAA          1.5330     0.2820     1.3780 hc         1 AUX       0.067700
     36 HAAA         2.0220     0.9420    -0.1720 hc         1 AUX       0.067700
     37 HAD          3.9280    -0.6080     3.0700 h4         1 AUX       0.178000
     38 HAE          6.2810    -0.9600    -3.5930 ha         1 AUX       0.151000
     39 HAF          5.0480     1.1480    -3.1810 ha         1 AUX       0.150000
     40 HAG          6.5400    -2.6040    -1.7690 ha         1 AUX       0.145000
     41 HAH          4.0830     1.6420    -1.0210 ha         1 AUX       0.152000
     42 HAI          3.9880     2.0850     0.9880 h1         1 AUX       0.085700
     43 HAIA         3.4640     1.3810     2.4970 h1         1 AUX       0.085700
     44 HOG1        -3.9070     0.3130    -1.8690 ho         1 AUX       0.458000
     45 HG2         -2.4910     0.1100     0.3370 hc         1 AUX       0.037700
     46 CD1         -3.5140     0.4700     2.1890 c3         1 AUX      -0.082100
     47 CD2         -2.6040     2.2230     0.6190 c3         1 AUX      -0.056200
     48 HAB          5.1280    -2.7500     2.7790 ha         1 AUX       0.171000
     49 HD1         -4.2880     1.1230     2.6020 hc         1 AUX       0.026367
     50 HD1A        -3.8540    -0.5590     2.3110 hc         1 AUX       0.026367
     51 HD1B        -2.6260     0.5810     2.8110 hc         1 AUX       0.026367
     52 HD2         -3.2900     2.9510     1.0690 hc         1 AUX       0.063700
     53 HD2A        -2.5090     2.4840    -0.4360 hc         1 AUX       0.063700
     54 HAC          6.1240    -3.2730     0.5510 ha         1 AUX       0.157000
@<TRIPOS>BOND
     1     1     3 1   
     2     1     4 1   
     3     1    24 1   
     4     2     4 1   
     5     2     8 1   
     6     2    25 1   
     7     4     5 1   
     8     4    26 1   
     9     5    22 1   
    10     5    23 1   
    11     5    27 1   
    12     6     9 2   
    13     6    28 1   
    14     6    47 1   
    15     7     9 1   
    16     7    10 1   
    17     7    29 1   
    18     7    30 1   
    19     8    31 1   
    20     8    32 1   
    21     8    33 1   
    22     9    34 1   
    23    10    18 1   
    24    10    35 1   
    25    10    36 1   
    26    11    12 ar  
    27    11    13 ar  
    28    11    48 1   
    29    12    19 ar  
    30    12    54 1   
    31    13    21 1   
    32    13    37 1   
    33    14    15 ar  
    34    14    16 ar  
    35    14    38 1   
    36    15    17 ar  
    37    15    39 1   
    38    16    19 ar  
    39    16    40 1   
    40    17    20 ar  
    41    17    41 1   
    42    18    21 1   
    43    18    42 1   
    44    18    43 1   
    45    19    20 ar  
    46    20    21 2   
    47    22    44 1   
    48    23    45 1   
    49    23    46 1   
    50    23    47 1   
    51    46    49 1   
    52    46    50 1   
    53    46    51 1   
    54    47    52 1   
    55    47    53 1   
@<TRIPOS>SUBSTRUCTURE
     1 AUX         1 TEMP              0 ****  ****    0 ROOT
