@<TRIPOS>MOLECULE
I00
   35    36     1     0     0
SMALL
abcg2


@<TRIPOS>ATOM
      1 C10         28.5820    52.7160    -3.6710 c3         1 I00       0.004900
      2 C11         28.0110    52.1330    -4.9670 c3         1 I00      -0.205400
      3 C12         28.9500    52.3440    -6.1160 c          1 I00       0.577900
      4 C30         29.8820    56.2580    -3.9160 cc         1 I00      -0.167600
      5 C31         31.0680    57.1530    -3.9080 c          1 I00       0.633700
      6 N32         30.8810    58.4000    -4.3750 ns         1 I00      -0.497900
      7 C33         28.5740    56.6430    -3.9920 cd         1 I00      -0.220000
      8 S34         27.5160    55.3060    -3.9060 ss         1 I00       0.230000
      9 C35         28.8250    54.1880    -3.7590 cd         1 I00      -0.228300
     10 C36         30.0150    54.8440    -3.7770 cc         1 I00      -0.082000
     11 O37         32.1420    56.7520    -3.4780 o          1 I00      -0.603100
     12 O38         33.2070    61.6910    -5.5980 os         1 I00      -0.449000
     13 C39         33.8180    60.4230    -5.6830 c6         1 I00       0.157100
     14 C40         32.7980    59.2940    -5.6660 c6         1 I00      -0.130900
     15 C41         31.9310    59.3960    -4.4120 c6         1 I00       0.112700
     16 C42         31.3390    60.7980    -4.3200 c6         1 I00      -0.130900
     17 C43         32.4480    61.8360    -4.4200 c6         1 I00       0.157100
     18 O44         28.6280    52.7200    -7.2140 o          1 I00      -0.510100
     19 H1          27.9030    52.4840    -2.8490 hc         1 I00       0.059200
     20 H2          29.5320    52.2310    -3.4350 hc         1 I00       0.059200
     21 H3          27.0280    52.5450    -5.1990 hc         1 I00       0.071200
     22 H4          27.8910    51.0510    -4.8400 hc         1 I00       0.071200
     23 H5          30.0060    52.1070    -5.8860 h4         1 I00      -0.015800
     24 H6          30.0230    58.6210    -4.8550 hn         1 I00       0.313500
     25 H7          28.1680    57.6420    -4.0650 h4         1 I00       0.150000
     26 H8          30.9660    54.3360    -3.6970 ha         1 I00       0.152000
     27 H10         34.3950    60.4070    -6.6090 h1         1 I00       0.047450
     28 H11         32.1630    59.3490    -6.5560 hc         1 I00       0.056450
     29 H12         33.3190    58.3360    -5.6940 hc         1 I00       0.056450
     30 H13         32.5690    59.2370    -3.5380 h1         1 I00       0.076700
     31 H14         30.6170    60.9520    -5.1300 hc         1 I00       0.056450
     32 H15         30.8040    60.9280    -3.3770 hc         1 I00       0.056450
     33 H16         33.0960    61.7600    -3.5340 h1         1 I00       0.047450
     34 H17         32.0270    62.8430    -4.4310 h1         1 I00       0.047450
     35 H9          34.5280    60.2830    -4.8530 h1         1 I00       0.047450
@<TRIPOS>BOND
     1     1     2 1   
     2     1     9 1   
     3     1    19 1   
     4     1    20 1   
     5     2     3 1   
     6     2    21 1   
     7     2    22 1   
     8     3    18 2   
     9     3    23 1   
    10     4     5 1   
    11     4     7 2   
    12     4    10 1   
    13     5     6 1   
    14     5    11 2   
    15     6    15 1   
    16     6    24 1   
    17     7     8 1   
    18     7    25 1   
    19     8     9 1   
    20     9    10 2   
    21    10    26 1   
    22    12    13 1   
    23    12    17 1   
    24    13    14 1   
    25    13    27 1   
    26    13    35 1   
    27    14    15 1   
    28    14    28 1   
    29    14    29 1   
    30    15    16 1   
    31    15    30 1   
    32    16    17 1   
    33    16    31 1   
    34    16    32 1   
    35    17    33 1   
    36    17    34 1   
@<TRIPOS>SUBSTRUCTURE
     1 I00         1 TEMP              0 ****  ****    0 ROOT
