@<TRIPOS>MOLECULE
I00
   35    36     1     0     0
SMALL
No Charge or Current Charge


@<TRIPOS>ATOM
      1 C10         28.3650    52.7820    -3.6470 c3         1 I00       0.004900
      2 C11         28.0090    52.0400    -4.9550 c3         1 I00      -0.205400
      3 C12         29.1900    51.9920    -5.9280 c          1 I00       0.577900
      4 C30         29.9280    56.2260    -4.0510 cc         1 I00      -0.167600
      5 C31         31.1730    57.0440    -4.0310 c          1 I00       0.633700
      6 N32         30.9710    58.3810    -4.2920 ns         1 I00      -0.497900
      7 C33         28.6600    56.7100    -4.3030 cd         1 I00      -0.220000
      8 S34         27.4410    55.4240    -4.2350 ss         1 I00       0.230000
      9 C35         28.7030    54.2350    -3.8650 cd         1 I00      -0.228300
     10 C36         29.9380    54.8260    -3.8030 cc         1 I00      -0.082000
     11 O37         32.2860    56.5890    -3.8030 o          1 I00      -0.603100
     12 O38         33.0570    61.8180    -5.5860 os         1 I00      -0.449000
     13 C39         33.7210    60.5640    -5.8480 c6         1 I00       0.157100
     14 C40         32.7060    59.4020    -5.7430 c6         1 I00      -0.130900
     15 C41         32.0140    59.4080    -4.3570 c6         1 I00       0.112700
     16 C42         31.4040    60.8070    -4.0940 c6         1 I00      -0.130900
     17 C43         32.4770    61.9080    -4.2680 c6         1 I00       0.157100
     18 O44         29.4020    52.8510    -6.7770 o          1 I00      -0.510100
     19 H1          27.5170    52.7040    -2.9550 hc         1 I00       0.059200
     20 H2          29.2040    52.2700    -3.1570 hc         1 I00       0.059200
     21 H3          27.1530    52.5280    -5.4340 hc         1 I00       0.071200
     22 H4          27.7630    51.0110    -4.6710 hc         1 I00       0.071200
     23 H5          29.8640    51.1140    -5.8190 h4         1 I00      -0.015800
     24 H6          30.0150    58.6580    -4.4660 hn         1 I00       0.313500
     25 H7          28.3430    57.7220    -4.5240 h4         1 I00       0.150000
     26 H8          30.8550    54.2840    -3.5850 ha         1 I00       0.152000
     27 H10         34.1570    60.5930    -6.8570 h1         1 I00       0.047450
     28 H11         31.9570    59.4990    -6.5410 hc         1 I00       0.056450
     29 H12         33.2200    58.4460    -5.9060 hc         1 I00       0.056450
     30 H13         32.7650    59.1980    -3.5790 h1         1 I00       0.076700
     31 H14         30.5730    60.9970    -4.7860 hc         1 I00       0.056450
     32 H15         30.9880    60.8520    -3.0780 hc         1 I00       0.056450
     33 H16         33.2680    61.7960    -3.5120 h1         1 I00       0.047450
     34 H17         32.0210    62.9010    -4.1430 h1         1 I00       0.047450
     35 H9          34.5390    60.4260    -5.1260 h1         1 I00       0.047450
@<TRIPOS>BOND
     1     1     2 1   
     2     1     9 1   
     3     1    19 1   
     4     1    20 1   
     5     2     3 1   
     6     2    21 1   
     7     2    22 1   
     8     3    18 2   
     9     3    23 1   
    10     4     5 1   
    11     4     7 2   
    12     4    10 1   
    13     5     6 1   
    14     5    11 2   
    15     6    15 1   
    16     6    24 1   
    17     7     8 1   
    18     7    25 1   
    19     8     9 1   
    20     9    10 2   
    21    10    26 1   
    22    12    13 1   
    23    12    17 1   
    24    13    14 1   
    25    13    27 1   
    26    13    35 1   
    27    14    15 1   
    28    14    28 1   
    29    14    29 1   
    30    15    16 1   
    31    15    30 1   
    32    16    17 1   
    33    16    31 1   
    34    16    32 1   
    35    17    33 1   
    36    17    34 1   
@<TRIPOS>SUBSTRUCTURE
     1 I00         1 TEMP              0 ****  ****    0 ROOT
