@<TRIPOS>MOLECULE
I01
   63    66     1     0     0
SMALL
No Charge or Current Charge


@<TRIPOS>ATOM
      1 F96          4.1390    -2.2150    -0.7370 f          1 I01      -0.150000
      2 C76          4.4760    -1.4190     0.3050 ca         1 I01       0.209000
      3 C75          5.1030    -1.9800     1.4390 ca         1 I01       0.064100
      4 O95          5.3700    -3.3400     1.4480 os         1 I01      -0.322100
      5 C98          6.0030    -3.9940     2.5620 c3         1 I01       0.146900
      6 C74          5.4350    -1.1420     2.5270 ca         1 I01      -0.122000
      7 C73          5.1410     0.2330     2.4690 ca         1 I01      -0.189000
      8 C72          4.5160     0.7790     1.3370 ca         1 I01       0.156100
      9 O92          4.2470     2.1130     1.2930 oh         1 I01      -0.524100
     10 C71          4.1780    -0.0460     0.2530 ca         1 I01      -0.212600
     11 C61          3.5110     0.5160    -0.9590 c          1 I01       0.617300
     12 O62          4.1340     0.6150    -2.0100 o          1 I01      -0.488100
     13 C54          2.0600     0.9410    -0.8560 ca         1 I01      -0.130600
     14 C55          1.4270     1.5640    -1.9530 ca         1 I01      -0.075500
     15 C56          0.0730     1.9330    -1.8850 ca         1 I01      -0.074000
     16 C53          1.3050     0.7040     0.3150 ca         1 I01      -0.075500
     17 C52         -0.0480     1.0760     0.3830 ca         1 I01      -0.074000
     18 C51         -0.6840     1.6890    -0.7200 ca         1 I01      -0.127600
     19 C42         -2.1600     2.0130    -0.7000 c          1 I01       0.610700
     20 O43         -2.7700     2.3530    -1.7060 o          1 I01      -0.496000
     21 O41         -2.7740     1.6910     0.4870 os         1 I01      -0.440100
     22 C37         -4.2150     1.5560     0.5210 c3         1 I01       0.172300
     23 C36         -4.6460     1.8980     1.9680 c3         1 I01      -0.074400
     24 C35         -6.1700     2.0670     2.1780 c3         1 I01      -0.071400
     25 C34         -7.0490     0.8880     1.7040 c3         1 I01       0.167800
     26 N33         -7.0750     0.8300     0.2280 n7         1 I01      -0.886400
     27 C32         -6.0650    -0.0210    -0.4520 c3         1 I01       0.162800
     28 C31         -4.6200     0.0960     0.1080 c3         1 I01       0.087700
     29 N23         -3.6580    -0.5410    -0.8160 ns         1 I01      -0.505900
     30 C21         -2.5810    -1.3060    -0.4130 c          1 I01       0.616700
     31 O22         -2.4920    -1.7320     0.7300 o          1 I01      -0.594100
     32 C14         -1.5020    -1.5530    -1.4480 ca         1 I01      -0.116600
     33 C13         -0.3290    -2.2600    -1.0990 ca         1 I01      -0.131500
     34 C12          0.6870    -2.4490    -2.0510 ca         1 I01       0.330900
     35 N11          0.6060    -1.9840    -3.3170 nb         1 I01      -0.643000
     36 C16         -0.5100    -1.3030    -3.6640 ca         1 I01       0.330900
     37 C15         -1.5750    -1.0660    -2.7760 ca         1 I01      -0.131500
     38 H981         7.0010    -3.5750     2.7450 h1         1 I01       0.043033
     39 H982         5.4010    -3.8840     3.4730 h1         1 I01       0.043033
     40 H983         6.1170    -5.0660     2.3580 h1         1 I01       0.043033
     41 H74          5.9190    -1.5340     3.4180 ha         1 I01       0.123000
     42 H73          5.4040     0.8690     3.3120 ha         1 I01       0.121000
     43 H92          4.5650     2.5230     2.1260 ho         1 I01       0.470000
     44 H55          1.9790     1.7550    -2.8710 ha         1 I01       0.132000
     45 H56         -0.3920     2.3960    -2.7540 ha         1 I01       0.140000
     46 H53          1.7520     0.2170     1.1780 ha         1 I01       0.132000
     47 H52         -0.6020     0.8600     1.2940 ha         1 I01       0.140000
     48 H37         -4.6900     2.2790    -0.1580 h1         1 I01       0.089700
     49 H361        -4.2720     1.1230     2.6490 hc         1 I01       0.055700
     50 H362        -4.1570     2.8320     2.2700 hc         1 I01       0.055700
     51 H351        -6.3530     2.2230     3.2480 hc         1 I01       0.048700
     52 H352        -6.5030     2.9830     1.6750 hc         1 I01       0.048700
     53 H341        -6.7080    -0.0580     2.1470 h1         1 I01       0.033700
     54 H342        -8.0680     1.0720     2.0730 h1         1 I01       0.033700
     55 H33         -8.0030     0.4970    -0.0660 hn         1 I01       0.424000
     56 H321        -6.3630    -1.0770    -0.3850 h1         1 I01       0.036700
     57 H322        -6.0490     0.2360    -1.5200 h1         1 I01       0.036700
     58 H31         -4.6130    -0.4980     1.0310 h1         1 I01       0.084700
     59 H23         -3.6590    -0.2360    -1.7800 hn         1 I01       0.323500
     60 H13         -0.1930    -2.6550    -0.0960 ha         1 I01       0.134500
     61 H12          1.5950    -2.9900    -1.7900 h4         1 I01       0.026100
     62 H16         -0.5510    -0.9330    -4.6870 h4         1 I01       0.026100
     63 H15         -2.4300    -0.5040    -3.1390 ha         1 I01       0.134500
@<TRIPOS>BOND
     1     1     2 1   
     2     2     3 ar  
     3     2    10 ar  
     4     3     4 1   
     5     3     6 ar  
     6     4     5 1   
     7     5    38 1   
     8     5    39 1   
     9     5    40 1   
    10     6     7 ar  
    11     6    41 1   
    12     7     8 ar  
    13     7    42 1   
    14     8     9 1   
    15     8    10 ar  
    16     9    43 1   
    17    10    11 1   
    18    11    12 2   
    19    11    13 1   
    20    13    14 ar  
    21    13    16 ar  
    22    14    15 ar  
    23    14    44 1   
    24    15    18 ar  
    25    15    45 1   
    26    16    17 ar  
    27    16    46 1   
    28    17    18 ar  
    29    17    47 1   
    30    18    19 1   
    31    19    20 2   
    32    19    21 1   
    33    21    22 1   
    34    22    23 1   
    35    22    28 1   
    36    22    48 1   
    37    23    24 1   
    38    23    49 1   
    39    23    50 1   
    40    24    25 1   
    41    24    51 1   
    42    24    52 1   
    43    25    26 1   
    44    25    53 1   
    45    25    54 1   
    46    26    27 1   
    47    26    55 1   
    48    27    28 1   
    49    27    56 1   
    50    27    57 1   
    51    28    29 1   
    52    28    58 1   
    53    29    30 1   
    54    29    59 1   
    55    30    31 2   
    56    30    32 1   
    57    32    33 ar  
    58    32    37 ar  
    59    33    34 ar  
    60    33    60 1   
    61    34    35 ar  
    62    34    61 1   
    63    35    36 ar  
    64    36    37 ar  
    65    36    62 1   
    66    37    63 1   
@<TRIPOS>SUBSTRUCTURE
     1 I01         1 TEMP              0 ****  ****    0 ROOT
