@<TRIPOS>MOLECULE
I01
   63    66     1     0     0
SMALL
bcc


@<TRIPOS>ATOM
      1 F96          3.7950    -1.9820    -0.8570 f          1 I01      -0.114900
      2 C76          4.2430    -1.2760     0.1900 ca         1 I01       0.173900
      3 C75          4.8700    -1.9540     1.2330 ca         1 I01       0.064100
      4 O95          4.9920    -3.2880     1.1010 os         1 I01      -0.298900
      5 C98          5.6390    -3.9940     2.1420 c3         1 I01       0.123700
      6 C74          5.3090    -1.1930     2.3080 ca         1 I01      -0.140000
      7 C73          5.1240     0.1860     2.3380 ca         1 I01      -0.207000
      8 C72          4.4900     0.8320     1.2900 ca         1 I01       0.156100
      9 O92          4.2720     2.1600     1.2400 oh         1 I01      -0.485100
     10 C71          4.0410     0.0850     0.1990 ca         1 I01      -0.212600
     11 C61          3.3930     0.7610    -0.9710 c          1 I01       0.617300
     12 O62          4.0150     0.9380    -1.9930 o          1 I01      -0.488100
     13 C54          1.9760     1.1770    -0.8320 ca         1 I01      -0.130600
     14 C55          1.3580     1.8620    -1.8790 ca         1 I01      -0.093500
     15 C56          0.0200     2.1910    -1.7960 ca         1 I01      -0.092000
     16 C53          1.2440     0.8640     0.3090 ca         1 I01      -0.093500
     17 C52         -0.0970     1.1990     0.3970 ca         1 I01      -0.092000
     18 C51         -0.7200     1.8470    -0.6650 ca         1 I01      -0.127600
     19 C42         -2.1900     2.0730    -0.6970 c          1 I01       0.659700
     20 O43         -2.7720     2.4580    -1.6820 o          1 I01      -0.545000
     21 O41         -2.7770     1.7690     0.4500 os         1 I01      -0.416900
     22 C37         -4.1960     1.5610     0.4690 c3         1 I01       0.149100
     23 C36         -4.6690     1.9610     1.8610 c3         1 I01      -0.074400
     24 C35         -6.1850     2.0290     2.0220 c3         1 I01      -0.071400
     25 C34         -6.9610     0.8250     1.5020 c3         1 I01       0.167800
     26 N33         -6.8480     0.7240     0.0540 n7         1 I01      -0.831200
     27 C32         -5.8390    -0.1800    -0.4490 c3         1 I01       0.162800
     28 C31         -4.4680     0.0570     0.1880 c3         1 I01       0.087700
     29 N23         -3.4570    -0.5510    -0.6450 ns         1 I01      -0.572900
     30 C21         -2.3970    -1.2180    -0.1480 c          1 I01       0.683700
     31 O22         -2.2550    -1.4680     1.0380 o          1 I01      -0.594100
     32 C14         -1.3490    -1.6360    -1.1370 ca         1 I01      -0.116600
     33 C13         -0.4560    -2.6370    -0.7720 ca         1 I01      -0.214800
     34 C12          0.5610    -2.9780    -1.6480 ca         1 I01       0.396200
     35 N11          0.7410    -2.3910    -2.8250 nb         1 I01      -0.643000
     36 C16         -0.1060    -1.4300    -3.1660 ca         1 I01       0.396200
     37 C15         -1.1630    -1.0200    -2.3680 ca         1 I01      -0.214800
     38 H981         6.6700    -3.6570     2.2820 h1         1 I01       0.043033
     39 H982         5.1050    -3.9030     3.0910 h1         1 I01       0.043033
     40 H983         5.6500    -5.0390     1.8450 h1         1 I01       0.043033
     41 H74          5.8040    -1.6600     3.1480 ha         1 I01       0.141000
     42 H73          5.4850     0.7480     3.1910 ha         1 I01       0.139000
     43 H92          4.5950     2.5880     2.0410 ho         1 I01       0.431000
     44 H55          1.9180     2.1210    -2.7670 ha         1 I01       0.150000
     45 H56         -0.4600     2.6920    -2.6250 ha         1 I01       0.158000
     46 H53          1.7030     0.3320     1.1310 ha         1 I01       0.150000
     47 H52         -0.6510     0.9230     1.2820 ha         1 I01       0.158000
     48 H37         -4.6680     2.1850    -0.2920 h1         1 I01       0.089700
     49 H361        -4.2480     1.2570     2.5870 hc         1 I01       0.055700
     50 H362        -4.2550     2.9430     2.1000 hc         1 I01       0.055700
     51 H351        -6.4050     2.1740     3.0820 hc         1 I01       0.048700
     52 H352        -6.5630     2.9130     1.5000 hc         1 I01       0.048700
     53 H341        -6.6490    -0.0940     2.0200 h1         1 I01       0.033700
     54 H342        -8.0140     0.9670     1.7520 h1         1 I01       0.033700
     55 H33         -7.7370     0.4730    -0.3520 hn         1 I01       0.368800
     56 H321        -6.0850    -1.2420    -0.3020 h1         1 I01       0.036700
     57 H322        -5.7620    -0.0210    -1.5290 h1         1 I01       0.036700
     58 H31         -4.4300    -0.4670     1.1440 h1         1 I01       0.084700
     59 H23         -3.5630    -0.4740    -1.6450 hn         1 I01       0.323500
     60 H13         -0.5410    -3.1420     0.1800 ha         1 I01       0.152500
     61 H12          1.2620    -3.7610    -1.3830 h4         1 I01       0.026100
     62 H16          0.0620    -0.9490    -4.1230 h4         1 I01       0.026100
     63 H15         -1.7880    -0.2090    -2.7160 ha         1 I01       0.152500
@<TRIPOS>BOND
     1     1     2 1   
     2     2     3 ar  
     3     2    10 ar  
     4     3     4 1   
     5     3     6 ar  
     6     4     5 1   
     7     5    38 1   
     8     5    39 1   
     9     5    40 1   
    10     6     7 ar  
    11     6    41 1   
    12     7     8 ar  
    13     7    42 1   
    14     8     9 1   
    15     8    10 ar  
    16     9    43 1   
    17    10    11 1   
    18    11    12 2   
    19    11    13 1   
    20    13    14 ar  
    21    13    16 ar  
    22    14    15 ar  
    23    14    44 1   
    24    15    18 ar  
    25    15    45 1   
    26    16    17 ar  
    27    16    46 1   
    28    17    18 ar  
    29    17    47 1   
    30    18    19 1   
    31    19    20 2   
    32    19    21 1   
    33    21    22 1   
    34    22    23 1   
    35    22    28 1   
    36    22    48 1   
    37    23    24 1   
    38    23    49 1   
    39    23    50 1   
    40    24    25 1   
    41    24    51 1   
    42    24    52 1   
    43    25    26 1   
    44    25    53 1   
    45    25    54 1   
    46    26    27 1   
    47    26    55 1   
    48    27    28 1   
    49    27    56 1   
    50    27    57 1   
    51    28    29 1   
    52    28    58 1   
    53    29    30 1   
    54    29    59 1   
    55    30    31 2   
    56    30    32 1   
    57    32    33 ar  
    58    32    37 ar  
    59    33    34 ar  
    60    33    60 1   
    61    34    35 ar  
    62    34    61 1   
    63    35    36 ar  
    64    36    37 ar  
    65    36    62 1   
    66    37    63 1   
@<TRIPOS>SUBSTRUCTURE
     1 I01         1 TEMP              0 ****  ****    0 ROOT
