@<TRIPOS>MOLECULE
I02
   69    72     1     0     0
SMALL
bcc


@<TRIPOS>ATOM
      1 C1          -3.0780    -8.1240     4.4950 ca         1 I02      -0.085000
      2 C2          -1.8960    -8.7450     4.1010 ca         1 I02      -0.119300
      3 C3          -0.8400    -7.9530     3.6690 ca         1 I02      -0.085000
      4 C4          -0.9450    -6.5680     3.6300 ca         1 I02      -0.169500
      5 C5          -2.1330    -5.9890     4.0280 ca         1 I02       0.141900
      6 C6          -3.2070    -6.7440     4.4610 ca         1 I02      -0.169500
      7 C7          -1.7430   -10.2480     4.1730 c3         1 I02       0.166000
      8 N1          -2.8530   -10.9370     3.5380 ns         1 I02      -0.569900
      9 C8          -3.0330   -10.9160     2.2080 c          1 I02       0.679700
     10 C9          -4.2270   -11.6560     1.6870 ca         1 I02      -0.149600
     11 C10         -4.7770   -11.2290     0.4860 ca         1 I02      -0.043000
     12 C11         -5.8740   -11.8950    -0.0510 ca         1 I02      -0.133500
     13 C12         -6.4060   -13.0060     0.5970 ca         1 I02      -0.027000
     14 C13         -5.8560   -13.4320     1.7960 ca         1 I02       0.076600
     15 C14         -4.7700   -12.7560     2.3410 ca         1 I02      -0.114000
     16 N2          -6.3960   -14.5790     2.4370 nh         1 I02      -0.599900
     17 S1          -7.8200   -14.3460     3.2810 s6         1 I02       1.226900
     18 C15         -7.3760   -13.4080     4.7240 c3         1 I02      -0.271300
     19 C16         -5.4550   -15.5530     2.9910 c3         1 I02       0.182100
     20 O1          -2.2780   -10.3330     1.4470 o          1 I02      -0.583100
     21 O2          -8.2730   -15.6610     3.7020 o          1 I02      -0.589800
     22 O3          -8.6810   -13.5220     2.4520 o          1 I02      -0.589800
     23 C17         -1.6130   -10.7310     5.6120 c3         1 I02      -0.104100
     24 F1          -2.2520    -4.6510     3.9890 f          1 I02      -0.142900
     25 C20         -6.6170    -9.0790    -3.9250 c3         1 I02       0.177900
     26 N3          -5.2430    -8.9830    -4.3900 n8         1 I02      -0.897800
     27 C21         -7.5260    -9.2530    -5.1360 c3         1 I02      -0.081100
     28 C22         -6.9340    -7.7670    -3.1650 c3         1 I02      -0.024100
     29 C23        -10.7970    -7.7390    -1.2640 ca         1 I02      -0.121000
     30 C24         -9.6720    -8.1420    -0.5570 ca         1 I02      -0.124000
     31 C25         -8.4260    -8.1370    -1.1700 ca         1 I02      -0.121000
     32 C26         -8.2800    -7.7370    -2.4980 ca         1 I02      -0.087300
     33 C27         -9.4160    -7.3210    -3.1910 ca         1 I02      -0.121000
     34 C28        -10.6640    -7.3240    -2.5820 ca         1 I02      -0.124000
     35 N35         -7.6640   -11.2110    -3.0510 nc         1 I02      -0.343000
     36 N4          -7.4450   -11.9980    -1.9530 nc         1 I02      -0.342000
     37 C29         -6.4780   -11.4580    -1.2990 cd         1 I02       0.511900
     38 O4          -6.0350   -10.3480    -1.9070 os         1 I02      -0.377800
     39 C30         -6.8210   -10.2420    -2.9940 cd         1 I02       0.427700
     40 H1          -3.9220    -8.7140     4.8290 ha         1 I02       0.133000
     41 H3           0.0840    -8.4190     3.3470 ha         1 I02       0.133000
     42 H4          -0.1200    -5.9570     3.2870 ha         1 I02       0.151500
     43 H6          -4.1280    -6.2650     4.7680 ha         1 I02       0.151500
     44 H7          -0.8310   -10.5240     3.6380 h1         1 I02       0.076700
     45 HN1         -3.5730   -11.3130     4.1330 hn         1 I02       0.312500
     46 H10         -4.3440   -10.3790    -0.0230 ha         1 I02       0.171000
     47 H12         -7.2330   -13.5490     0.1620 ha         1 I02       0.187000
     48 H14         -4.3300   -13.1160     3.2640 ha         1 I02       0.134000
     49 H151        -6.9560   -12.4510     4.4200 h1         1 I02       0.101367
     50 H152        -8.2850   -13.2400     5.3000 h1         1 I02       0.101367
     51 H153        -6.6620   -13.9670     5.3250 h1         1 I02       0.101367
     52 H161        -5.9500   -16.5100     3.1230 h1         1 I02       0.056367
     53 H162        -5.0120   -15.2500     3.9430 h1         1 I02       0.056367
     54 H163        -4.6540   -15.6880     2.2670 h1         1 I02       0.056367
     55 H171        -2.5070   -10.5020     6.1960 hc         1 I02       0.046033
     56 H172        -1.4460   -11.8080     5.6470 hc         1 I02       0.046033
     57 H173        -0.7680   -10.2420     6.0930 hc         1 I02       0.046033
     58 HN31        -4.9720    -9.8230    -4.8860 hn         1 I02       0.358800
     59 HN32        -4.5960    -8.8720    -3.6190 hn         1 I02       0.358800
     60 H211        -7.2450   -10.1370    -5.7100 hc         1 I02       0.054367
     61 H212        -8.5710    -9.3600    -4.8530 hc         1 I02       0.054367
     62 H213        -7.4300    -8.3810    -5.7820 hc         1 I02       0.054367
     63 H221        -6.8460    -6.9560    -3.8920 hc         1 I02       0.063200
     64 H222        -6.1520    -7.6010    -2.4180 hc         1 I02       0.063200
     65 H28        -11.5340    -6.9990    -3.1380 ha         1 I02       0.131500
     66 H27         -9.3250    -6.9860    -4.2170 ha         1 I02       0.127500
     67 H25         -7.5530    -8.4340    -0.5990 ha         1 I02       0.127500
     68 H24         -9.7620    -8.4550     0.4750 ha         1 I02       0.131500
     69 H23        -11.7690    -7.7430    -0.7890 ha         1 I02       0.132000
@<TRIPOS>BOND
     1     1     2 ar  
     2     1     6 ar  
     3     1    40 1   
     4     2     3 ar  
     5     2     7 1   
     6     3     4 ar  
     7     3    41 1   
     8     4     5 ar  
     9     4    42 1   
    10     5     6 ar  
    11     5    24 1   
    12     6    43 1   
    13     7     8 1   
    14     7    23 1   
    15     7    44 1   
    16     8     9 1   
    17     8    45 1   
    18     9    10 1   
    19     9    20 2   
    20    10    11 ar  
    21    10    15 ar  
    22    11    12 ar  
    23    11    46 1   
    24    12    13 ar  
    25    12    37 1   
    26    13    14 ar  
    27    13    47 1   
    28    14    15 ar  
    29    14    16 1   
    30    15    48 1   
    31    16    17 1   
    32    16    19 1   
    33    17    18 1   
    34    17    21 2   
    35    17    22 2   
    36    18    49 1   
    37    18    50 1   
    38    18    51 1   
    39    19    52 1   
    40    19    53 1   
    41    19    54 1   
    42    23    55 1   
    43    23    56 1   
    44    23    57 1   
    45    25    26 1   
    46    25    27 1   
    47    25    28 1   
    48    25    39 1   
    49    26    58 1   
    50    26    59 1   
    51    27    60 1   
    52    27    61 1   
    53    27    62 1   
    54    28    32 1   
    55    28    63 1   
    56    28    64 1   
    57    29    30 ar  
    58    29    34 ar  
    59    29    69 1   
    60    30    31 ar  
    61    30    68 1   
    62    31    32 ar  
    63    31    67 1   
    64    32    33 ar  
    65    33    34 ar  
    66    33    66 1   
    67    34    65 1   
    68    35    36 1   
    69    35    39 2   
    70    36    37 2   
    71    37    38 1   
    72    38    39 1   
@<TRIPOS>SUBSTRUCTURE
     1 I02         1 TEMP              0 ****  ****    0 ROOT
