@<TRIPOS>MOLECULE
I02
   69    72     1     0     0
SMALL
No Charge or Current Charge


@<TRIPOS>ATOM
      1 C1          -1.3940   -10.3200     5.9640 ca         1 I02      -0.067000
      2 C2          -1.5550    -9.1540     5.1830 ca         1 I02      -0.119300
      3 C3          -1.7690    -7.9170     5.8270 ca         1 I02      -0.067000
      4 C4          -1.8140    -7.8460     7.2300 ca         1 I02      -0.151500
      5 C5          -1.6490    -9.0100     7.9960 ca         1 I02       0.177000
      6 C6          -1.4400   -10.2460     7.3670 ca         1 I02      -0.151500
      7 C7          -1.5150    -9.2210     3.6580 c3         1 I02       0.166000
      8 N1          -2.6660    -9.9760     3.1690 ns         1 I02      -0.502900
      9 C8          -3.1890    -9.8860     1.8980 c          1 I02       0.612700
     10 C9          -4.3810   -10.7700     1.5930 ca         1 I02      -0.149600
     11 C10         -4.9700   -10.7150     0.3100 ca         1 I02      -0.025000
     12 C11         -6.0820   -11.5220    -0.0180 ca         1 I02      -0.133500
     13 C12         -6.6080   -12.3890     0.9610 ca         1 I02      -0.009000
     14 C13         -6.0440   -12.4570     2.2470 ca         1 I02       0.215000
     15 C14         -4.9310   -11.6540     2.5540 ca         1 I02      -0.096000
     16 N2          -6.5710   -13.3260     3.2220 nh         1 I02      -0.738300
     17 S1          -8.1310   -13.0000     3.9000 s6         1 I02       1.196100
     18 C15         -7.9440   -11.3870     4.6370 c3         1 I02      -0.382100
     19 C16         -5.6960   -14.2600     3.9570 c3         1 I02       0.182100
     20 O1          -2.7130    -9.1270     1.0650 o          1 I02      -0.583100
     21 O2          -8.3580   -13.9780     4.9700 o          1 I02      -0.519000
     22 O3          -9.0760   -12.8970     2.7840 o          1 I02      -0.519000
     23 C17         -0.1910    -9.8120     3.1310 c3         1 I02      -0.104100
     24 F1          -1.6930    -8.9400     9.3440 f          1 I02      -0.178000
     25 C20         -6.8270   -10.0420    -4.6290 c3         1 I02       0.177900
     26 N3          -5.4410   -10.2210    -5.1570 n8         1 I02      -1.008200
     27 C21         -7.7870   -10.5490    -5.7400 c3         1 I02      -0.081100
     28 C22         -7.0400    -8.5190    -4.3730 c3         1 I02      -0.024100
     29 C23        -10.9150    -7.4970    -2.6770 ca         1 I02      -0.103000
     30 C24         -9.8350    -7.8030    -1.8320 ca         1 I02      -0.106000
     31 C25         -8.5830    -8.1310    -2.3790 ca         1 I02      -0.103000
     32 C26         -8.4030    -8.1620    -3.7770 ca         1 I02      -0.087300
     33 C27         -9.4870    -7.8420    -4.6190 ca         1 I02      -0.103000
     34 C28        -10.7390    -7.5140    -4.0700 ca         1 I02      -0.106000
     35 N35         -7.9530   -11.7390    -3.0750 nc         1 I02      -0.343000
     36 N4          -7.7380   -12.1540    -1.7800 nc         1 I02      -0.342000
     37 C29         -6.6900   -11.4610    -1.3620 cd         1 I02       0.467500
     38 O4          -6.1720   -10.6070    -2.2740 os         1 I02      -0.289000
     39 C30         -7.0170   -10.8260    -3.3120 cd         1 I02       0.383300
     40 H1          -1.2370   -11.2850     5.4870 ha         1 I02       0.115000
     41 H3          -1.9000    -7.0090     5.2410 ha         1 I02       0.115000
     42 H4          -1.9770    -6.8920     7.7250 ha         1 I02       0.133500
     43 H6          -1.3160   -11.1440     7.9670 ha         1 I02       0.133500
     44 H7          -1.5970    -8.1970     3.2680 h1         1 I02       0.076700
     45 HN1         -3.1230   -10.6090     3.8090 hn         1 I02       0.312500
     46 H10         -4.5560   -10.0400    -0.4370 ha         1 I02       0.153000
     47 H12         -7.4550   -13.0290     0.7270 ha         1 I02       0.169000
     48 H14         -4.5130   -11.7220     3.5530 ha         1 I02       0.116000
     49 H151        -7.6890   -10.6850     3.8380 h1         1 I02       0.101367
     50 H152        -8.8980   -11.1270     5.1060 h1         1 I02       0.101367
     51 H153        -7.1410   -11.4570     5.3780 h1         1 I02       0.101367
     52 H161        -6.1700   -15.2470     4.0440 h1         1 I02       0.056367
     53 H162        -5.4770   -13.8800     4.9640 h1         1 I02       0.056367
     54 H163        -4.7450   -14.3970     3.4260 h1         1 I02       0.056367
     55 H171        -0.0790   -10.8620     3.4260 hc         1 I02       0.046033
     56 H172        -0.1510    -9.7590     2.0370 hc         1 I02       0.046033
     57 H173         0.6620    -9.2490     3.5290 hc         1 I02       0.046033
     58 HN31        -5.2720   -11.2180    -5.3360 hn         1 I02       0.414000
     59 HN32        -4.7680    -9.9990    -4.4130 hn         1 I02       0.414000
     60 H211        -7.5970   -11.6030    -5.9730 hc         1 I02       0.054367
     61 H212        -8.8350   -10.4620    -5.4290 hc         1 I02       0.054367
     62 H213        -7.6610    -9.9700    -6.6630 hc         1 I02       0.054367
     63 H221        -6.8960    -7.9730    -5.3140 hc         1 I02       0.063200
     64 H222        -6.2500    -8.1560    -3.7040 hc         1 I02       0.063200
     65 H28        -11.5730    -7.2730    -4.7260 ha         1 I02       0.113500
     66 H27         -9.3620    -7.8510    -5.6990 ha         1 I02       0.109500
     67 H25         -7.7540    -8.3590    -1.7140 ha         1 I02       0.109500
     68 H24         -9.9680    -7.7850    -0.7520 ha         1 I02       0.113500
     69 H23        -11.8840    -7.2430    -2.2530 ha         1 I02       0.114000
@<TRIPOS>BOND
     1     1     2 ar  
     2     1     6 ar  
     3     1    40 1   
     4     2     3 ar  
     5     2     7 1   
     6     3     4 ar  
     7     3    41 1   
     8     4     5 ar  
     9     4    42 1   
    10     5     6 ar  
    11     5    24 1   
    12     6    43 1   
    13     7     8 1   
    14     7    23 1   
    15     7    44 1   
    16     8     9 1   
    17     8    45 1   
    18     9    10 1   
    19     9    20 2   
    20    10    11 ar  
    21    10    15 ar  
    22    11    12 ar  
    23    11    46 1   
    24    12    13 ar  
    25    12    37 1   
    26    13    14 ar  
    27    13    47 1   
    28    14    15 ar  
    29    14    16 1   
    30    15    48 1   
    31    16    17 1   
    32    16    19 1   
    33    17    18 1   
    34    17    21 2   
    35    17    22 2   
    36    18    49 1   
    37    18    50 1   
    38    18    51 1   
    39    19    52 1   
    40    19    53 1   
    41    19    54 1   
    42    23    55 1   
    43    23    56 1   
    44    23    57 1   
    45    25    26 1   
    46    25    27 1   
    47    25    28 1   
    48    25    39 1   
    49    26    58 1   
    50    26    59 1   
    51    27    60 1   
    52    27    61 1   
    53    27    62 1   
    54    28    32 1   
    55    28    63 1   
    56    28    64 1   
    57    29    30 ar  
    58    29    34 ar  
    59    29    69 1   
    60    30    31 ar  
    61    30    68 1   
    62    31    32 ar  
    63    31    67 1   
    64    32    33 ar  
    65    33    34 ar  
    66    33    66 1   
    67    34    65 1   
    68    35    36 1   
    69    35    39 2   
    70    36    37 2   
    71    37    38 1   
    72    38    39 1   
@<TRIPOS>SUBSTRUCTURE
     1 I02         1 TEMP              0 ****  ****    0 ROOT
