@<TRIPOS>MOLECULE
I03
   71    73     1     0     0
SMALL
bcc


@<TRIPOS>ATOM
      1 C1           7.8330     9.7070    -0.5140 ca         1 I03      -0.084000
      2 C2           7.9520     8.7900     0.5280 ca         1 I03      -0.120300
      3 C3           7.9530     7.4350     0.2230 ca         1 I03      -0.084000
      4 C4           7.8480     6.9920    -1.0890 ca         1 I03      -0.172500
      5 C5           7.7340     7.9310    -2.0940 ca         1 I03       0.140900
      6 C6           7.7230     9.2890    -1.8300 ca         1 I03      -0.172500
      7 C7           8.0920     9.2660     1.9580 c3         1 I03       0.170000
      8 N1           6.9690    10.1100     2.3290 ns         1 I03      -0.578900
      9 C8           5.7450     9.6250     2.6040 c          1 I03       0.681700
     10 C9           4.6910    10.6710     2.7800 ca         1 I03      -0.157600
     11 C10          4.6410    11.7460     1.9060 ca         1 I03      -0.057000
     12 C11          3.6610    12.7220     2.0420 ca         1 I03      -0.144600
     13 C12          2.7220    12.6130     3.0600 ca         1 I03      -0.083000
     14 C13          2.7530    11.5210     3.9210 ca         1 I03       0.073600
     15 C14          3.7340    10.5460     3.7770 ca         1 I03      -0.010000
     16 N2           1.8040    11.3970     4.9720 nh         1 I03      -0.608900
     17 S1           0.5410    10.3380     4.7060 s6         1 I03       1.228900
     18 C15         -0.5480    11.1560     3.5640 c3         1 I03      -0.268300
     19 C16          1.5270    12.5840     5.7790 c3         1 I03       0.184100
     20 O1           5.4890     8.4350     2.6870 o          1 I03      -0.569100
     21 O2          -0.1520    10.1840     5.9730 o          1 I03      -0.591800
     22 O3           1.0990     9.1690     4.0490 o          1 I03      -0.591800
     23 C17          9.3890    10.0360     2.1710 c3         1 I03      -0.107100
     24 F1           7.6330     7.5160    -3.3670 f          1 I03      -0.143900
     25 C18          3.6070    13.8890     1.1210 c          1 I03       0.664700
     26 O4           4.4130    13.7110     0.0890 os         1 I03      -0.442900
     27 O5           2.9200    14.8610     1.3040 o          1 I03      -0.528000
     28 C19          4.6270    14.7310    -0.8880 c3         1 I03       0.114400
     29 C20          4.8880    14.0430    -2.2320 c3         1 I03       0.145200
     30 N3           3.7260    13.3080    -2.7140 n8         1 I03      -0.899800
     31 C21          5.2390    15.1250    -3.2610 c3         1 I03       0.143400
     32 C22          6.0470    13.0240    -2.1630 c3         1 I03      -0.026100
     33 C23          9.8930    14.4710    -0.8580 ca         1 I03      -0.124000
     34 C24          8.9460    14.0750     0.0770 ca         1 I03      -0.127500
     35 C25          7.7040    13.6160    -0.3400 ca         1 I03      -0.129000
     36 C26          7.3800    13.5420    -1.6950 ca         1 I03      -0.082300
     37 C27          8.3460    13.9370    -2.6210 ca         1 I03      -0.129000
     38 C28          9.5880    14.4000    -2.2100 ca         1 I03      -0.127500
     39 O6           4.1830    16.0240    -3.5080 oh         1 I03      -0.597800
     40 H1           7.8330    10.7730    -0.3130 ha         1 I03       0.136500
     41 H3           8.0340     6.7060     1.0200 ha         1 I03       0.136500
     42 H4           7.8480     5.9350    -1.3210 ha         1 I03       0.150500
     43 H6           7.6350    10.0050    -2.6370 ha         1 I03       0.150500
     44 H7           8.0950     8.3940     2.6160 h1         1 I03       0.074700
     45 HN1          7.1340    11.0970     2.4430 hn         1 I03       0.315500
     46 H10          5.3590    11.8130     1.1020 ha         1 I03       0.154000
     47 H12          1.9610    13.3750     3.1720 ha         1 I03       0.156000
     48 H14          3.7680     9.7130     4.4650 ha         1 I03       0.177000
     49 H151        -0.8790    12.1030     3.9850 h1         1 I03       0.103033
     50 H152        -0.0290    11.3200     2.6220 h1         1 I03       0.103033
     51 H153        -1.4070    10.5080     3.4020 h1         1 I03       0.103033
     52 H161         0.9150    13.3310     5.2690 h1         1 I03       0.056367
     53 H162         2.4790    13.0380     6.0420 h1         1 I03       0.056367
     54 H163         1.0310    12.2940     6.7010 h1         1 I03       0.056367
     55 H171         9.4430    10.9190     1.5310 hc         1 I03       0.046367
     56 H172         9.4840    10.3570     3.2090 hc         1 I03       0.046367
     57 H173        10.2410     9.4020     1.9320 hc         1 I03       0.046367
     58 H191         5.4810    15.3330    -0.5680 h1         1 I03       0.069700
     59 H192         3.7580    15.3850    -0.9660 h1         1 I03       0.069700
     60 HN31         2.8940    13.8840    -2.6710 hn         1 I03       0.351300
     61 HN32         3.5380    12.5140    -2.1130 hn         1 I03       0.351300
     62 H211         6.0790    15.7200    -2.8940 h1         1 I03       0.055200
     63 H212         5.5670    14.6310    -4.1840 h1         1 I03       0.055200
     64 H221         5.7370    12.1870    -1.5310 hc         1 I03       0.060700
     65 H222         6.1580    12.6070    -3.1670 hc         1 I03       0.060700
     66 H28         10.3200    14.7000    -2.9490 ha         1 I03       0.131500
     67 H27          8.1230    13.8740    -3.6800 ha         1 I03       0.129500
     68 H25          6.9780    13.3170     0.4060 ha         1 I03       0.129500
     69 H24          9.1730    14.1220     1.1340 ha         1 I03       0.131500
     70 HO6          3.5440    15.5910    -4.0820 ho         1 I03       0.409000
     71 H23         10.8620    14.8280    -0.5340 ha         1 I03       0.134000
@<TRIPOS>BOND
     1     1     2 ar  
     2     1     6 ar  
     3     1    40 1   
     4     2     3 ar  
     5     2     7 1   
     6     3     4 ar  
     7     3    41 1   
     8     4     5 ar  
     9     4    42 1   
    10     5     6 ar  
    11     5    24 1   
    12     6    43 1   
    13     7     8 1   
    14     7    23 1   
    15     7    44 1   
    16     8     9 1   
    17     8    45 1   
    18     9    10 1   
    19     9    20 2   
    20    10    11 ar  
    21    10    15 ar  
    22    11    12 ar  
    23    11    46 1   
    24    12    13 ar  
    25    12    25 1   
    26    13    14 ar  
    27    13    47 1   
    28    14    15 ar  
    29    14    16 1   
    30    15    48 1   
    31    16    17 1   
    32    16    19 1   
    33    17    18 1   
    34    17    21 2   
    35    17    22 2   
    36    18    49 1   
    37    18    50 1   
    38    18    51 1   
    39    19    52 1   
    40    19    53 1   
    41    19    54 1   
    42    23    55 1   
    43    23    56 1   
    44    23    57 1   
    45    25    26 1   
    46    25    27 2   
    47    26    28 1   
    48    28    29 1   
    49    28    58 1   
    50    28    59 1   
    51    29    30 1   
    52    29    31 1   
    53    29    32 1   
    54    30    60 1   
    55    30    61 1   
    56    31    39 1   
    57    31    62 1   
    58    31    63 1   
    59    32    36 1   
    60    32    64 1   
    61    32    65 1   
    62    33    34 ar  
    63    33    38 ar  
    64    33    71 1   
    65    34    35 ar  
    66    34    69 1   
    67    35    36 ar  
    68    35    68 1   
    69    36    37 ar  
    70    37    38 ar  
    71    37    67 1   
    72    38    66 1   
    73    39    70 1   
@<TRIPOS>SUBSTRUCTURE
     1 I03         1 TEMP              0 ****  ****    0 ROOT
