@<TRIPOS>MOLECULE
I03
   71    73     1     0     0
SMALL
No Charge or Current Charge


@<TRIPOS>ATOM
      1 C1           8.7090    10.1510     0.0150 ca         1 I03      -0.066000
      2 C2           7.9900     8.9470     0.1910 ca         1 I03      -0.120300
      3 C3           7.7710     8.1060    -0.9210 ca         1 I03      -0.066000
      4 C4           8.2680     8.4630    -2.1870 ca         1 I03      -0.154500
      5 C5           8.9800     9.6610    -2.3500 ca         1 I03       0.176000
      6 C6           9.2030    10.5040    -1.2530 ca         1 I03      -0.154500
      7 C7           7.4020     8.5840     1.5530 c3         1 I03       0.170000
      8 N1           6.3930     9.5820     1.8830 ns         1 I03      -0.511900
      9 C8           5.4190     9.4780     2.8510 c          1 I03       0.614700
     10 C9           4.4730    10.6520     2.9440 ca         1 I03      -0.157600
     11 C10          4.4380    11.6500     1.9440 ca         1 I03      -0.039000
     12 C11          3.5860    12.7670     2.0580 ca         1 I03      -0.144600
     13 C12          2.7510    12.8790     3.1890 ca         1 I03      -0.065000
     14 C13          2.7420    11.8800     4.1810 ca         1 I03       0.212000
     15 C14          3.6070    10.7740     4.0520 ca         1 I03       0.008000
     16 N2           1.8900    12.0070     5.2980 nh         1 I03      -0.747300
     17 S1           0.5780    10.8950     5.5050 s6         1 I03       1.198100
     18 C15         -0.3950    11.1110     4.0270 c3         1 I03      -0.379100
     19 C16          1.8430    13.2600     6.0770 c3         1 I03       0.184100
     20 O1           5.3220     8.4950     3.5710 o          1 I03      -0.569100
     21 O2          -0.2110    11.3560     6.6520 o          1 I03      -0.521000
     22 O3           1.1480     9.5450     5.4970 o          1 I03      -0.521000
     23 C17          8.4830     8.4770     2.6490 c3         1 I03      -0.107100
     24 F1           9.4480    10.0050    -3.5690 f          1 I03      -0.179000
     25 C18          3.5940    13.8360     0.9940 c          1 I03       0.615700
     26 O4           4.1230    13.3960    -0.1920 os         1 I03      -0.466100
     27 O5           3.1850    14.9740     1.1780 o          1 I03      -0.479000
     28 C19          4.3920    14.3500    -1.2400 c3         1 I03       0.137600
     29 C20          4.8500    13.5700    -2.5180 c3         1 I03       0.145200
     30 N3           3.7160    12.6940    -2.9570 n8         1 I03      -1.010200
     31 C21          5.1510    14.5860    -3.6650 c3         1 I03       0.166600
     32 C22          6.0930    12.6650    -2.2370 c3         1 I03      -0.026100
     33 C23          9.6640    14.7410    -0.8750 ca         1 I03      -0.106000
     34 C24          8.7180    14.2820     0.0570 ca         1 I03      -0.109500
     35 C25          7.5610    13.6180    -0.3840 ca         1 I03      -0.111000
     36 C26          7.3370    13.4120    -1.7600 ca         1 I03      -0.082300
     37 C27          8.2950    13.8670    -2.6890 ca         1 I03      -0.111000
     38 C28          9.4520    14.5320    -2.2480 ca         1 I03      -0.109500
     39 O6           3.9000    14.9130    -4.2740 oh         1 I03      -0.660000
     40 H1           8.8760    10.8210     0.8550 ha         1 I03       0.118500
     41 H3           7.2100     7.1810    -0.8060 ha         1 I03       0.118500
     42 H4           8.0960     7.8150    -3.0440 ha         1 I03       0.132500
     43 H6           9.7500    11.4340    -1.3860 ha         1 I03       0.132500
     44 H7           6.9010     7.6090     1.4750 h1         1 I03       0.074700
     45 HN1          6.4050    10.4370     1.3470 hn         1 I03       0.315500
     46 H10          5.0770    11.5690     1.0700 ha         1 I03       0.136000
     47 H12          2.0890    13.7350     3.2880 ha         1 I03       0.138000
     48 H14          3.6240    10.0220     4.8360 ha         1 I03       0.159000
     49 H151        -0.7010    12.1610     3.9860 h1         1 I03       0.103033
     50 H152         0.2360    10.8450     3.1730 h1         1 I03       0.103033
     51 H153        -1.2610    10.4450     4.1040 h1         1 I03       0.103033
     52 H161         0.9570    13.8520     5.8110 h1         1 I03       0.056367
     53 H162         2.7360    13.8690     5.8830 h1         1 I03       0.056367
     54 H163         1.8180    13.0460     7.1540 h1         1 I03       0.056367
     55 H171         8.9660     9.4440     2.8270 hc         1 I03       0.046367
     56 H172         8.0470     8.1340     3.5940 hc         1 I03       0.046367
     57 H173         9.2540     7.7560     2.3520 hc         1 I03       0.046367
     58 H191         5.1750    15.0540    -0.9300 h1         1 I03       0.069700
     59 H192         3.4910    14.9340    -1.4750 h1         1 I03       0.069700
     60 HN31         3.1630    12.4690    -2.1190 hn         1 I03       0.406500
     61 HN32         4.0880    11.7760    -3.2290 hn         1 I03       0.406500
     62 H211         5.6630    15.4770    -3.2760 h1         1 I03       0.055200
     63 H212         5.8080    14.1140    -4.4080 h1         1 I03       0.055200
     64 H221         5.8270    11.8980    -1.4990 hc         1 I03       0.060700
     65 H222         6.3380    12.1050    -3.1490 hc         1 I03       0.060700
     66 H28         10.1860    14.8820    -2.9700 ha         1 I03       0.113500
     67 H27          8.1480    13.7010    -3.7530 ha         1 I03       0.111500
     68 H25          6.8410    13.2620     0.3480 ha         1 I03       0.111500
     69 H24          8.8840    14.4390     1.1210 ha         1 I03       0.113500
     70 HO6          3.3740    14.1090    -4.0160 ho         1 I03       0.448000
     71 H23         10.5600    15.2540    -0.5340 ha         1 I03       0.116000
@<TRIPOS>BOND
     1     1     2 ar  
     2     1     6 ar  
     3     1    40 1   
     4     2     3 ar  
     5     2     7 1   
     6     3     4 ar  
     7     3    41 1   
     8     4     5 ar  
     9     4    42 1   
    10     5     6 ar  
    11     5    24 1   
    12     6    43 1   
    13     7     8 1   
    14     7    23 1   
    15     7    44 1   
    16     8     9 1   
    17     8    45 1   
    18     9    10 1   
    19     9    20 2   
    20    10    11 ar  
    21    10    15 ar  
    22    11    12 ar  
    23    11    46 1   
    24    12    13 ar  
    25    12    25 1   
    26    13    14 ar  
    27    13    47 1   
    28    14    15 ar  
    29    14    16 1   
    30    15    48 1   
    31    16    17 1   
    32    16    19 1   
    33    17    18 1   
    34    17    21 2   
    35    17    22 2   
    36    18    49 1   
    37    18    50 1   
    38    18    51 1   
    39    19    52 1   
    40    19    53 1   
    41    19    54 1   
    42    23    55 1   
    43    23    56 1   
    44    23    57 1   
    45    25    26 1   
    46    25    27 2   
    47    26    28 1   
    48    28    29 1   
    49    28    58 1   
    50    28    59 1   
    51    29    30 1   
    52    29    31 1   
    53    29    32 1   
    54    30    60 1   
    55    30    61 1   
    56    31    39 1   
    57    31    62 1   
    58    31    63 1   
    59    32    36 1   
    60    32    64 1   
    61    32    65 1   
    62    33    34 ar  
    63    33    38 ar  
    64    33    71 1   
    65    34    35 ar  
    66    34    69 1   
    67    35    36 ar  
    68    35    68 1   
    69    36    37 ar  
    70    37    38 ar  
    71    37    67 1   
    72    38    66 1   
    73    39    70 1   
@<TRIPOS>SUBSTRUCTURE
     1 I03         1 TEMP              0 ****  ****    0 ROOT
