@<TRIPOS>MOLECULE
I04
   64    67     1     0     0
SMALL
No Charge or Current Charge


@<TRIPOS>ATOM
      1 F96         -3.2400     1.0120    -1.0400 f          1 I04      -0.147000
      2 C76         -4.0770     0.6480    -0.0400 ca         1 I04       0.205000
      3 C75         -4.6420     1.6410     0.7890 ca         1 I04       0.061100
      4 O95         -4.3090     2.9660     0.5630 os         1 I04      -0.322100
      5 C98         -4.8330     4.0410     1.3630 c3         1 I04       0.145900
      6 C74         -5.5280     1.2530     1.8190 ca         1 I04      -0.120000
      7 C73         -5.8330    -0.1070     2.0060 ca         1 I04      -0.193000
      8 C72         -5.2620    -1.0860     1.1780 ca         1 I04       0.164100
      9 O92         -5.5510    -2.4000     1.3970 oh         1 I04      -0.518100
     10 C71         -4.3780    -0.7130     0.1520 ca         1 I04      -0.215600
     11 C61         -3.7500    -1.7380    -0.7380 c          1 I04       0.616300
     12 O62         -4.4390    -2.4210    -1.4880 o          1 I04      -0.486100
     13 C54         -2.2420    -1.8750    -0.7120 ca         1 I04      -0.142600
     14 C55         -1.5720    -2.5540    -1.7510 ca         1 I04      -0.069000
     15 C56         -0.1710    -2.6660    -1.7480 ca         1 I04      -0.089000
     16 C53         -1.4780    -1.3350     0.3450 ca         1 I04      -0.069000
     17 C52         -0.0780    -1.4500     0.3510 ca         1 I04      -0.089000
     18 C51          0.6000    -2.1100    -0.7030 ca         1 I04      -0.132600
     19 C42          2.1130    -2.2120    -0.7530 c          1 I04       0.609700
     20 O43          2.7000    -2.7760    -1.6680 o          1 I04      -0.614100
     21 N41          2.7980    -1.6080     0.2770 ns         1 I04      -0.495900
     22 C37          4.2480    -1.3600     0.3070 c3         1 I04       0.106700
     23 C36          4.8520    -2.1540     1.4940 c3         1 I04      -0.081400
     24 C35          6.3930    -2.2690     1.5190 c3         1 I04      -0.068400
     25 C34          7.1610    -0.9330     1.4680 c3         1 I04       0.169800
     26 N33          7.0660    -0.3540     0.1170 n7         1 I04      -0.886400
     27 C32          5.9590     0.5940    -0.1530 c3         1 I04       0.167800
     28 C31          4.5540     0.1750     0.3770 c3         1 I04       0.086700
     29 N23          3.5170     0.9910    -0.2940 ns         1 I04      -0.490900
     30 C21          2.3410     1.4100     0.2910 c          1 I04       0.612700
     31 O22          2.0990     1.1770     1.4680 o          1 I04      -0.615100
     32 C14          1.3570     2.1410    -0.5990 ca         1 I04      -0.119600
     33 C13          0.1010     2.5440    -0.0930 ca         1 I04      -0.131000
     34 C12         -0.8090     3.2170    -0.9270 ca         1 I04       0.331400
     35 N11         -0.5450     3.5080    -2.2210 nb         1 I04      -0.641000
     36 C16          0.6510     3.1230    -2.7190 ca         1 I04       0.331400
     37 C15          1.6210     2.4460    -1.9570 ca         1 I04      -0.131000
     38 H981        -4.5460     3.9190     2.4160 h1         1 I04       0.043033
     39 H982        -4.4370     5.0020     1.0130 h1         1 I04       0.043033
     40 H983        -5.9270     4.0790     1.2970 h1         1 I04       0.043033
     41 H74         -5.9850     1.9860     2.4790 ha         1 I04       0.123000
     42 H73         -6.5140    -0.3930     2.8060 ha         1 I04       0.121000
     43 H92         -6.1840    -2.4590     2.1440 ho         1 I04       0.469000
     44 H55         -2.1340    -2.9860    -2.5770 ha         1 I04       0.129500
     45 H56          0.3170    -3.1820    -2.5730 ha         1 I04       0.132500
     46 H53         -1.9600    -0.8240     1.1750 ha         1 I04       0.129500
     47 H52          0.4610    -1.0140     1.1870 ha         1 I04       0.132500
     48 H41          2.2380    -1.1470     0.9820 hn         1 I04       0.321500
     49 H37          4.6860    -1.7470    -0.6240 h1         1 I04       0.098700
     50 H361         4.5110    -1.7060     2.4360 hc         1 I04       0.045200
     51 H362         4.4460    -3.1730     1.4780 hc         1 I04       0.045200
     52 H351         6.6810    -2.7950     2.4370 hc         1 I04       0.047700
     53 H352         6.7210    -2.9040     0.6870 hc         1 I04       0.047700
     54 H341         6.7970    -0.2410     2.2410 h1         1 I04       0.032200
     55 H342         8.2140    -1.1520     1.6920 h1         1 I04       0.032200
     56 H33          7.9460     0.1410    -0.0830 hn         1 I04       0.424000
     57 H321         6.1960     1.5750     0.2820 h1         1 I04       0.036700
     58 H322         5.8890     0.7430    -1.2390 h1         1 I04       0.036700
     59 H31          4.5330     0.4500     1.4400 h1         1 I04       0.075700
     60 H23          3.6380     1.2050    -1.2750 hn         1 I04       0.325500
     61 H13         -0.1780     2.3420     0.9370 ha         1 I04       0.136500
     62 H12         -1.7780     3.5350    -0.5470 h4         1 I04       0.025100
     63 H16          0.8410     3.3670    -3.7640 h4         1 I04       0.025100
     64 H15          2.5560     2.1770    -2.4390 ha         1 I04       0.136500
@<TRIPOS>BOND
     1     1     2 1   
     2     2     3 ar  
     3     2    10 ar  
     4     3     4 1   
     5     3     6 ar  
     6     4     5 1   
     7     5    38 1   
     8     5    39 1   
     9     5    40 1   
    10     6     7 ar  
    11     6    41 1   
    12     7     8 ar  
    13     7    42 1   
    14     8     9 1   
    15     8    10 ar  
    16     9    43 1   
    17    10    11 1   
    18    11    12 2   
    19    11    13 1   
    20    13    14 ar  
    21    13    16 ar  
    22    14    15 ar  
    23    14    44 1   
    24    15    18 ar  
    25    15    45 1   
    26    16    17 ar  
    27    16    46 1   
    28    17    18 ar  
    29    17    47 1   
    30    18    19 1   
    31    19    20 2   
    32    19    21 1   
    33    21    22 1   
    34    21    48 1   
    35    22    23 1   
    36    22    28 1   
    37    22    49 1   
    38    23    24 1   
    39    23    50 1   
    40    23    51 1   
    41    24    25 1   
    42    24    52 1   
    43    24    53 1   
    44    25    26 1   
    45    25    54 1   
    46    25    55 1   
    47    26    27 1   
    48    26    56 1   
    49    27    28 1   
    50    27    57 1   
    51    27    58 1   
    52    28    29 1   
    53    28    59 1   
    54    29    30 1   
    55    29    60 1   
    56    30    31 2   
    57    30    32 1   
    58    32    33 ar  
    59    32    37 ar  
    60    33    34 ar  
    61    33    61 1   
    62    34    35 ar  
    63    34    62 1   
    64    35    36 ar  
    65    36    37 ar  
    66    36    63 1   
    67    37    64 1   
@<TRIPOS>SUBSTRUCTURE
     1 I04         1 TEMP              0 ****  ****    0 ROOT
