@<TRIPOS>MOLECULE
I04
   64    67     1     0     0
SMALL
bcc


@<TRIPOS>ATOM
      1 F96         -3.3490     1.2370    -1.1150 f          1 I04      -0.111900
      2 C76         -4.0910     0.7980    -0.0920 ca         1 I04       0.169900
      3 C75         -4.6670     1.7340     0.7640 ca         1 I04       0.061100
      4 O95         -4.4290     3.0300     0.4920 os         1 I04      -0.298900
      5 C98         -4.9880     3.9970     1.3600 c3         1 I04       0.122700
      6 C74         -5.4280     1.2400     1.8140 ca         1 I04      -0.138000
      7 C73         -5.6040    -0.1290     1.9950 ca         1 I04      -0.211000
      8 C72         -5.0240    -1.0380     1.1250 ca         1 I04       0.164100
      9 O92         -5.1360    -2.3740     1.2550 oh         1 I04      -0.479100
     10 C71         -4.2470    -0.5620     0.0650 ca         1 I04      -0.215600
     11 C61         -3.5970    -1.5030    -0.9040 c          1 I04       0.616300
     12 O62         -4.2630    -2.1540    -1.6750 o          1 I04      -0.486100
     13 C54         -2.1180    -1.5930    -0.8680 ca         1 I04      -0.142600
     14 C55         -1.4300    -2.1710    -1.9360 ca         1 I04      -0.087000
     15 C56         -0.0500    -2.2190    -1.9300 ca         1 I04      -0.107000
     16 C53         -1.3990    -1.1090     0.2200 ca         1 I04      -0.087000
     17 C52         -0.0180    -1.1940     0.2420 ca         1 I04      -0.107000
     18 C51          0.6710    -1.7340    -0.8390 ca         1 I04      -0.132600
     19 C42          2.1670    -1.7100    -0.9290 c          1 I04       0.676700
     20 O43          2.7190    -1.6810    -2.0210 o          1 I04      -0.614100
     21 N41          2.8360    -1.6970     0.2350 ns         1 I04      -0.562900
     22 C37          4.2540    -1.4300     0.3330 c3         1 I04       0.106700
     23 C36          4.7900    -2.1250     1.5870 c3         1 I04      -0.081400
     24 C35          6.3090    -2.1960     1.7080 c3         1 I04      -0.068400
     25 C34          7.0600    -0.8930     1.4700 c3         1 I04       0.169800
     26 N33          6.9210    -0.4620     0.0870 n7         1 I04      -0.831200
     27 C32          5.8850     0.5090    -0.1770 c3         1 I04       0.167800
     28 C31          4.5290     0.1060     0.4060 c3         1 I04       0.086700
     29 N23          3.5090     0.8930    -0.2460 ns         1 I04      -0.557900
     30 C21          2.3950     1.3100     0.3780 c          1 I04       0.679700
     31 O22          2.2290     1.2220     1.5860 o          1 I04      -0.615100
     32 C14          1.3190     1.8920    -0.4910 ca         1 I04      -0.119600
     33 C13          0.3340     2.6700     0.1060 ca         1 I04      -0.214300
     34 C12         -0.6980     3.1620    -0.6760 ca         1 I04       0.396700
     35 N11         -0.8010     2.9330    -1.9800 nb         1 I04      -0.641000
     36 C16          0.1310     2.1780    -2.5440 ca         1 I04       0.396700
     37 C15          1.2020     1.6330    -1.8510 ca         1 I04      -0.214300
     38 H981        -4.6240     3.8840     2.3850 h1         1 I04       0.043033
     39 H982        -4.6750     4.9660     0.9830 h1         1 I04       0.043033
     40 H983        -6.0800     3.9560     1.3670 h1         1 I04       0.043033
     41 H74         -5.9010     1.9120     2.5170 ha         1 I04       0.141000
     42 H73         -6.1970    -0.4760     2.8320 ha         1 I04       0.139000
     43 H92         -5.6500    -2.5920     2.0400 ho         1 I04       0.430000
     44 H55         -1.9740    -2.5560    -2.7880 ha         1 I04       0.147500
     45 H56          0.4750    -2.6310    -2.7810 ha         1 I04       0.150500
     46 H53         -1.9060    -0.6590     1.0620 ha         1 I04       0.147500
     47 H52          0.5010    -0.7840     1.0970 ha         1 I04       0.150500
     48 H41          2.3170    -1.7690     1.0970 hn         1 I04       0.321500
     49 H37          4.7330    -1.8420    -0.5560 h1         1 I04       0.098700
     50 H361         4.3760    -1.6150     2.4640 hc         1 I04       0.045200
     51 H362         4.4020    -3.1460     1.6110 hc         1 I04       0.045200
     52 H351         6.5500    -2.5750     2.7040 hc         1 I04       0.047700
     53 H352         6.6910    -2.9310     0.9940 hc         1 I04       0.047700
     54 H341         6.7490    -0.1230     2.1910 h1         1 I04       0.032200
     55 H342         8.1190    -1.0730     1.6650 h1         1 I04       0.032200
     56 H33          7.7980    -0.1050    -0.2620 hn         1 I04       0.368800
     57 H321         6.1140     1.5120     0.2090 h1         1 I04       0.036700
     58 H322         5.7900     0.6020    -1.2640 h1         1 I04       0.036700
     59 H31          4.5020     0.3840     1.4620 h1         1 I04       0.075700
     60 H23          3.5900     1.0200    -1.2420 hn         1 I04       0.325500
     61 H13          0.3620     2.8900     1.1640 ha         1 I04       0.154500
     62 H12         -1.4780     3.7640    -0.2250 h4         1 I04       0.025100
     63 H16          0.0250     1.9850    -3.6050 h4         1 I04       0.025100
     64 H15          1.8910     0.9970    -2.3900 ha         1 I04       0.154500
@<TRIPOS>BOND
     1     1     2 1   
     2     2     3 ar  
     3     2    10 ar  
     4     3     4 1   
     5     3     6 ar  
     6     4     5 1   
     7     5    38 1   
     8     5    39 1   
     9     5    40 1   
    10     6     7 ar  
    11     6    41 1   
    12     7     8 ar  
    13     7    42 1   
    14     8     9 1   
    15     8    10 ar  
    16     9    43 1   
    17    10    11 1   
    18    11    12 2   
    19    11    13 1   
    20    13    14 ar  
    21    13    16 ar  
    22    14    15 ar  
    23    14    44 1   
    24    15    18 ar  
    25    15    45 1   
    26    16    17 ar  
    27    16    46 1   
    28    17    18 ar  
    29    17    47 1   
    30    18    19 1   
    31    19    20 2   
    32    19    21 1   
    33    21    22 1   
    34    21    48 1   
    35    22    23 1   
    36    22    28 1   
    37    22    49 1   
    38    23    24 1   
    39    23    50 1   
    40    23    51 1   
    41    24    25 1   
    42    24    52 1   
    43    24    53 1   
    44    25    26 1   
    45    25    54 1   
    46    25    55 1   
    47    26    27 1   
    48    26    56 1   
    49    27    28 1   
    50    27    57 1   
    51    27    58 1   
    52    28    29 1   
    53    28    59 1   
    54    29    30 1   
    55    29    60 1   
    56    30    31 2   
    57    30    32 1   
    58    32    33 ar  
    59    32    37 ar  
    60    33    34 ar  
    61    33    61 1   
    62    34    35 ar  
    63    34    62 1   
    64    35    36 ar  
    65    36    37 ar  
    66    36    63 1   
    67    37    64 1   
@<TRIPOS>SUBSTRUCTURE
     1 I04         1 TEMP              0 ****  ****    0 ROOT
