@<TRIPOS>MOLECULE
I05
   64    67     1     0     0
SMALL
bcc


@<TRIPOS>ATOM
      1 F96          3.2250    -2.5980    -1.2750 f          1 I05      -0.116900
      2 C76          3.8940    -1.7510    -0.4840 ca         1 I05       0.184900
      3 C75          4.5050    -2.2520     0.6640 ca         1 I05       0.074100
      4 O95          4.3780    -3.5700     0.8930 os         1 I05      -0.287900
      5 C97          4.8950    -4.0780     2.1050 c3         1 I05       0.125700
      6 C74          5.1940    -1.3460     1.4580 ca         1 I05      -0.149000
      7 C73          5.2690     0.0020     1.1160 ca         1 I05      -0.209000
      8 C72          4.6460     0.4710    -0.0270 ca         1 I05       0.152100
      9 O92          4.6770     1.7580    -0.4300 oh         1 I05      -0.486100
     10 C71          3.9350    -0.4210    -0.8340 ca         1 I05      -0.213600
     11 C61          3.2520     0.0400    -2.0880 c          1 I05       0.622300
     12 O62          3.7480    -0.1950    -3.1680 o          1 I05      -0.501100
     13 C54          1.9600     0.7400    -1.9460 ca         1 I05      -0.161600
     14 C55          1.2360     1.0900    -3.0900 ca         1 I05      -0.076000
     15 C56         -0.0000     1.6940    -2.9760 ca         1 I05      -0.136500
     16 C53          1.4260     1.0460    -0.6970 ca         1 I05      -0.076000
     17 C52          0.1980     1.6750    -0.5870 ca         1 I05      -0.136500
     18 C51         -0.5420     1.9830    -1.7220 ca         1 I05      -0.068300
     19 C42         -1.9100     2.6030    -1.6300 c3         1 I05       0.186700
     20 O41         -2.4700     2.3180    -0.3790 os         1 I05      -0.419600
     21 C37         -3.8790     2.2580    -0.3150 c3         1 I05       0.143100
     22 C36         -4.4340     3.6410     0.0350 c3         1 I05      -0.095400
     23 C35         -5.9460     3.8100    -0.0760 c3         1 I05      -0.070400
     24 C34         -6.7730     2.7380     0.6220 c3         1 I05       0.169800
     25 N33         -6.5900     1.4510    -0.0300 n7         1 I05      -0.835200
     26 C32         -5.6120     0.5640     0.5560 c3         1 I05       0.165800
     27 C31         -4.2430     1.2170     0.7750 c3         1 I05       0.103700
     28 N23         -3.2620     0.1590     0.8640 ns         1 I05      -0.548900
     29 C21         -2.1700     0.2370     1.6410 c          1 I05       0.689700
     30 O22         -2.0340     1.0540     2.5390 o          1 I05      -0.593100
     31 C14         -1.0850    -0.7670     1.3730 ca         1 I05      -0.111600
     32 C13         -0.1300    -0.9860     2.3600 ca         1 I05      -0.212300
     33 C12          0.9160    -1.8570     2.0990 ca         1 I05       0.391200
     34 N11          1.0680    -2.4950     0.9460 nb         1 I05      -0.645000
     35 C16          0.1640    -2.2740     0.0020 ca         1 I05       0.391200
     36 C15         -0.9240    -1.4290     0.1630 ca         1 I05      -0.212300
     37 H971         5.9810    -3.9690     2.1670 h1         1 I05       0.040367
     38 H972         4.4430    -3.5930     2.9740 h1         1 I05       0.040367
     39 H973         4.6500    -5.1370     2.1270 h1         1 I05       0.040367
     40 H74          5.6920    -1.6700     2.3620 ha         1 I05       0.139000
     41 H73          5.8250     0.6780     1.7530 ha         1 I05       0.137000
     42 H92          5.1790     2.2950     0.1940 ho         1 I05       0.429000
     43 H55          1.6320     0.8650    -4.0720 ha         1 I05       0.145000
     44 H56         -0.5620     1.9270    -3.8720 ha         1 I05       0.144000
     45 H53          1.9530     0.7780     0.2090 ha         1 I05       0.145000
     46 H52         -0.1870     1.9020     0.3970 ha         1 I05       0.144000
     47 H421        -1.8350     3.6860    -1.8020 h1         1 I05       0.035200
     48 H422        -2.5300     2.2050    -2.4440 h1         1 I05       0.035200
     49 H37         -4.2780     1.9200    -1.2820 h1         1 I05       0.051700
     50 H361        -4.1110     3.8840     1.0530 hc         1 I05       0.049700
     51 H362        -3.9630     4.3790    -0.6210 hc         1 I05       0.049700
     52 H351        -6.2110     4.7920     0.3230 hc         1 I05       0.045700
     53 H352        -6.2350     3.8130    -1.1310 hc         1 I05       0.045700
     54 H341        -6.5450     2.7090     1.6980 h1         1 I05       0.032700
     55 H342        -7.8270     3.0120     0.5460 h1         1 I05       0.032700
     56 H33         -7.4700     0.9610    -0.0960 hn         1 I05       0.366800
     57 H321        -5.9280     0.1380     1.5210 h1         1 I05       0.035200
     58 H322        -5.4890    -0.2790    -0.1320 h1         1 I05       0.035200
     59 H31         -4.2400     1.7300     1.7390 h1         1 I05       0.088700
     60 H23         -3.2840    -0.5300     0.1300 hn         1 I05       0.309500
     61 H13         -0.1920    -0.4870     3.3170 ha         1 I05       0.150500
     62 H12          1.6670    -2.0430     2.8590 h4         1 I05       0.023100
     63 H16          0.3090    -2.7890    -0.9410 h4         1 I05       0.023100
     64 H15         -1.5930    -1.2880    -0.6750 ha         1 I05       0.150500
@<TRIPOS>BOND
     1     1     2 1   
     2     2     3 ar  
     3     2    10 ar  
     4     3     4 1   
     5     3     6 ar  
     6     4     5 1   
     7     5    37 1   
     8     5    38 1   
     9     5    39 1   
    10     6     7 ar  
    11     6    40 1   
    12     7     8 ar  
    13     7    41 1   
    14     8     9 1   
    15     8    10 ar  
    16     9    42 1   
    17    10    11 1   
    18    11    12 2   
    19    11    13 1   
    20    13    14 ar  
    21    13    16 ar  
    22    14    15 ar  
    23    14    43 1   
    24    15    18 ar  
    25    15    44 1   
    26    16    17 ar  
    27    16    45 1   
    28    17    18 ar  
    29    17    46 1   
    30    18    19 1   
    31    19    20 1   
    32    19    47 1   
    33    19    48 1   
    34    20    21 1   
    35    21    22 1   
    36    21    27 1   
    37    21    49 1   
    38    22    23 1   
    39    22    50 1   
    40    22    51 1   
    41    23    24 1   
    42    23    52 1   
    43    23    53 1   
    44    24    25 1   
    45    24    54 1   
    46    24    55 1   
    47    25    26 1   
    48    25    56 1   
    49    26    27 1   
    50    26    57 1   
    51    26    58 1   
    52    27    28 1   
    53    27    59 1   
    54    28    29 1   
    55    28    60 1   
    56    29    30 2   
    57    29    31 1   
    58    31    32 ar  
    59    31    36 ar  
    60    32    33 ar  
    61    32    61 1   
    62    33    34 ar  
    63    33    62 1   
    64    34    35 ar  
    65    35    36 ar  
    66    35    63 1   
    67    36    64 1   
@<TRIPOS>SUBSTRUCTURE
     1 I05         1 TEMP              0 ****  ****    0 ROOT
