@<TRIPOS>MOLECULE
I05
   64    67     1     0     0
SMALL
No Charge or Current Charge


@<TRIPOS>ATOM
      1 F96          3.5470    -2.6670    -0.5060 f          1 I05      -0.152000
      2 C76          4.3530    -1.6010    -0.2820 ca         1 I05       0.220000
      3 C75          5.3040    -1.6500     0.7610 ca         1 I05       0.074100
      4 O95          5.3960    -2.8020     1.5250 os         1 I05      -0.311100
      5 C97          6.3330    -2.9360     2.6080 c3         1 I05       0.148900
      6 C74          6.1280    -0.5260     0.9940 ca         1 I05      -0.131000
      7 C73          5.9940     0.6210     0.1910 ca         1 I05      -0.191000
      8 C72          5.0440     0.6590    -0.8420 ca         1 I05       0.152100
      9 O92          4.9370     1.7730    -1.6180 oh         1 I05      -0.525100
     10 C71          4.2180    -0.4510    -1.0800 ca         1 I05      -0.213600
     11 C61          3.2010    -0.4310    -2.1730 c          1 I05       0.622300
     12 O62          3.3700    -1.1120    -3.1790 o          1 I05      -0.501100
     13 C54          1.9660     0.4270    -1.9990 ca         1 I05      -0.161600
     14 C55          1.0380     0.5550    -3.0570 ca         1 I05      -0.058000
     15 C56         -0.1260     1.3260    -2.9000 ca         1 I05      -0.118500
     16 C53          1.7000     1.0940    -0.7800 ca         1 I05      -0.058000
     17 C52          0.5360     1.8660    -0.6300 ca         1 I05      -0.118500
     18 C51         -0.3870     1.9860    -1.6850 ca         1 I05      -0.068300
     19 C42         -1.6770     2.7740    -1.4910 c3         1 I05       0.209900
     20 O41         -2.3820     2.1650    -0.3960 os         1 I05      -0.466000
     21 C37         -3.8130     2.3750    -0.3230 c3         1 I05       0.166300
     22 C36         -4.0810     3.8370     0.1310 c3         1 I05      -0.095400
     23 C35         -5.5620     4.2820     0.0690 c3         1 I05      -0.070400
     24 C34         -6.5720     3.3750     0.8070 c3         1 I05       0.169800
     25 N33         -6.7510     2.1070     0.0730 n7         1 I05      -0.890400
     26 C32         -5.8810     0.9620     0.4470 c3         1 I05       0.165800
     27 C31         -4.3780     1.3110     0.6720 c3         1 I05       0.103700
     28 N23         -3.5300     0.1060     0.6550 ns         1 I05      -0.481900
     29 C21         -3.5210    -0.9000     1.5910 c          1 I05       0.622700
     30 O22         -4.3590    -0.9620     2.4800 o          1 I05      -0.593100
     31 C14         -2.3930    -1.9050     1.4630 ca         1 I05      -0.111600
     32 C13         -2.3390    -3.0330     2.3120 ca         1 I05      -0.129000
     33 C12         -1.2820    -3.9510     2.1910 ca         1 I05       0.325900
     34 N11         -0.2850    -3.8140     1.2880 nb         1 I05      -0.645000
     35 C16         -0.3220    -2.7360     0.4720 ca         1 I05       0.325900
     36 C15         -1.3420    -1.7690     0.5210 ca         1 I05      -0.129000
     37 H971         7.3640    -2.8320     2.2470 h1         1 I05       0.040367
     38 H972         6.1500    -2.1770     3.3790 h1         1 I05       0.040367
     39 H973         6.2350    -3.9240     3.0740 h1         1 I05       0.040367
     40 H74          6.8720    -0.5230     1.7860 ha         1 I05       0.121000
     41 H73          6.6360     1.4800     0.3780 ha         1 I05       0.119000
     42 H92          5.5980     2.4300    -1.3120 ho         1 I05       0.468000
     43 H55          1.2130     0.0500    -4.0050 ha         1 I05       0.127000
     44 H56         -0.8330     1.3990    -3.7240 ha         1 I05       0.126000
     45 H53          2.3820     1.0130     0.0630 ha         1 I05       0.127000
     46 H52          0.3400     2.3620     0.3190 ha         1 I05       0.126000
     47 H421        -1.4420     3.8240    -1.2750 h1         1 I05       0.035200
     48 H422        -2.2730     2.7340    -2.4120 h1         1 I05       0.035200
     49 H37         -4.2620     2.2060    -1.3110 h1         1 I05       0.051700
     50 H361        -3.7110     3.9660     1.1560 hc         1 I05       0.049700
     51 H362        -3.5060     4.5300    -0.4920 hc         1 I05       0.049700
     52 H351        -5.6330     5.2910     0.4940 hc         1 I05       0.045700
     53 H352        -5.8660     4.3720    -0.9810 hc         1 I05       0.045700
     54 H341        -6.2610     3.2080     1.8480 h1         1 I05       0.032700
     55 H342        -7.5310     3.9110     0.8360 h1         1 I05       0.032700
     56 H33         -7.7260     1.8000     0.1920 hn         1 I05       0.422000
     57 H321        -6.2610     0.5020     1.3690 h1         1 I05       0.035200
     58 H322        -5.9470     0.1970    -0.3380 h1         1 I05       0.035200
     59 H31         -4.2940     1.7390     1.6790 h1         1 I05       0.088700
     60 H23         -2.7690     0.1100    -0.0110 hn         1 I05       0.309500
     61 H13         -3.1060    -3.2040     3.0630 ha         1 I05       0.132500
     62 H12         -1.2320    -4.8260     2.8390 h4         1 I05       0.023100
     63 H16          0.4940    -2.6430    -0.2440 h4         1 I05       0.023100
     64 H15         -1.2860    -0.9310    -0.1670 ha         1 I05       0.132500
@<TRIPOS>BOND
     1     1     2 1   
     2     2     3 ar  
     3     2    10 ar  
     4     3     4 1   
     5     3     6 ar  
     6     4     5 1   
     7     5    37 1   
     8     5    38 1   
     9     5    39 1   
    10     6     7 ar  
    11     6    40 1   
    12     7     8 ar  
    13     7    41 1   
    14     8     9 1   
    15     8    10 ar  
    16     9    42 1   
    17    10    11 1   
    18    11    12 2   
    19    11    13 1   
    20    13    14 ar  
    21    13    16 ar  
    22    14    15 ar  
    23    14    43 1   
    24    15    18 ar  
    25    15    44 1   
    26    16    17 ar  
    27    16    45 1   
    28    17    18 ar  
    29    17    46 1   
    30    18    19 1   
    31    19    20 1   
    32    19    47 1   
    33    19    48 1   
    34    20    21 1   
    35    21    22 1   
    36    21    27 1   
    37    21    49 1   
    38    22    23 1   
    39    22    50 1   
    40    22    51 1   
    41    23    24 1   
    42    23    52 1   
    43    23    53 1   
    44    24    25 1   
    45    24    54 1   
    46    24    55 1   
    47    25    26 1   
    48    25    56 1   
    49    26    27 1   
    50    26    57 1   
    51    26    58 1   
    52    27    28 1   
    53    27    59 1   
    54    28    29 1   
    55    28    60 1   
    56    29    30 2   
    57    29    31 1   
    58    31    32 ar  
    59    31    36 ar  
    60    32    33 ar  
    61    32    61 1   
    62    33    34 ar  
    63    33    62 1   
    64    34    35 ar  
    65    35    36 ar  
    66    35    63 1   
    67    36    64 1   
@<TRIPOS>SUBSTRUCTURE
     1 I05         1 TEMP              0 ****  ****    0 ROOT
