@<TRIPOS>MOLECULE
I06
   34    36     1     0     0
SMALL
No Charge or Current Charge


@<TRIPOS>ATOM
      1 C7           1.7440    -0.1750    -4.8740 ca         1 I06      -0.098000
      2 C8           1.9230     0.0260    -3.4960 ca         1 I06      -0.063000
      3 C9           0.8080     0.0950    -2.6300 ca         1 I06      -0.119600
      4 C10         -0.4940    -0.0390    -3.1580 ca         1 I06      -0.121600
      5 C11         -0.6620    -0.2410    -4.5470 ca         1 I06      -0.063000
      6 C12          0.4510    -0.3080    -5.4000 ca         1 I06      -0.097000
      7 C13          1.0050     0.3100    -1.1550 c          1 I06       0.576600
      8 O13          2.1270     0.4220    -0.6730 o          1 I06      -0.547000
      9 N14         -0.1580     0.3760    -0.3410 n          1 I06      -0.255400
     10 N15         -1.4990     0.2370    -0.8990 ns         1 I06      -0.366500
     11 C16         -1.6970     0.0270    -2.2540 c          1 I06       0.577600
     12 O16         -2.8350    -0.1030    -2.6820 o          1 I06      -0.548000
     13 CA          -0.0600     0.6140     1.1170 c3         1 I06       0.098000
     14 CB          -0.1460    -0.6850     1.9420 c3         1 I06      -0.057100
     15 CG          -0.0460    -0.4170     3.4370 ca         1 I06      -0.088300
     16 CD1         -1.2120    -0.2630     4.2120 ca         1 I06      -0.104500
     17 CD2          1.2150    -0.3110     4.0550 ca         1 I06      -0.104500
     18 CE1         -1.1180    -0.0090     5.5920 ca         1 I06      -0.108500
     19 CE2          1.3090    -0.0570     5.4350 ca         1 I06      -0.108500
     20 CZ           0.1430     0.0940     6.2030 ca         1 I06      -0.107000
     21 H71          2.6080    -0.2270    -5.5330 ha         1 I06       0.122000
     22 H81          2.9330     0.1270    -3.1030 ha         1 I06       0.142000
     23 H111        -1.6600    -0.3470    -4.9710 ha         1 I06       0.142000
     24 H121         0.3100    -0.4640    -6.4680 ha         1 I06       0.122000
     25 H15         -2.3030     0.2430    -0.2790 hn         1 I06       0.342500
     26 HA1          0.8800     1.1310     1.3500 h1         1 I06       0.073200
     27 HA2         -0.8750     1.2840     1.4200 h1         1 I06       0.073200
     28 HB1         -1.0870    -1.1980     1.7080 hc         1 I06       0.060200
     29 HB2          0.6580    -1.3610     1.6260 hc         1 I06       0.060200
     30 HD11        -2.1930    -0.3380     3.7470 ha         1 I06       0.113500
     31 HD21         2.1230    -0.4240     3.4670 ha         1 I06       0.113500
     32 HE11        -2.0210     0.1090     6.1860 ha         1 I06       0.114000
     33 HE21         2.2860     0.0230     5.9070 ha         1 I06       0.114000
     34 HZ1          0.2160     0.2910     7.2710 ha         1 I06       0.114000
@<TRIPOS>BOND
     1     1     2 ar  
     2     1     6 ar  
     3     1    21 1   
     4     2     3 ar  
     5     2    22 1   
     6     3     4 ar  
     7     3     7 1   
     8     4     5 ar  
     9     4    11 1   
    10     5     6 ar  
    11     5    23 1   
    12     6    24 1   
    13     7     8 2   
    14     7     9 1   
    15     9    10 1   
    16     9    13 1   
    17    10    11 1   
    18    10    25 1   
    19    11    12 2   
    20    13    14 1   
    21    13    26 1   
    22    13    27 1   
    23    14    15 1   
    24    14    28 1   
    25    14    29 1   
    26    15    16 ar  
    27    15    17 ar  
    28    16    18 ar  
    29    16    30 1   
    30    17    19 ar  
    31    17    31 1   
    32    18    20 ar  
    33    18    32 1   
    34    19    20 ar  
    35    19    33 1   
    36    20    34 1   
@<TRIPOS>SUBSTRUCTURE
     1 I06         1 TEMP              0 ****  ****    0 ROOT
