@<TRIPOS>MOLECULE
I06
   34    36     1     0     0
SMALL
bcc


@<TRIPOS>ATOM
      1 C7           1.6750    -0.3020    -4.7100 ca         1 I06      -0.116000
      2 C8           1.8770     0.0250    -3.3820 ca         1 I06      -0.081000
      3 C9           0.7860     0.1530    -2.5260 ca         1 I06      -0.119600
      4 C10         -0.5040    -0.0530    -3.0140 ca         1 I06      -0.121600
      5 C11         -0.7020    -0.3840    -4.3520 ca         1 I06      -0.081000
      6 C12          0.3860    -0.5080    -5.1960 ca         1 I06      -0.115000
      7 C13          1.0220     0.4770    -1.1060 c          1 I06       0.719100
      8 O13          2.1430     0.5930    -0.6290 o          1 I06      -0.622500
      9 N14         -0.0890     0.6360    -0.3490 n          1 I06      -0.322400
     10 N15         -1.3530     0.3990    -0.8450 ns         1 I06      -0.433500
     11 C16         -1.6630     0.0980    -2.1220 c          1 I06       0.720100
     12 O16         -2.8250    -0.0260    -2.4800 o          1 I06      -0.623500
     13 CA          -0.0200     0.7500     1.0970 c3         1 I06       0.098000
     14 CB          -0.0790    -0.6120     1.7940 c3         1 I06      -0.057100
     15 CG          -0.0270    -0.4390     3.2860 ca         1 I06      -0.088300
     16 CD1         -1.1960    -0.3850     4.0400 ca         1 I06      -0.122500
     17 CD2          1.1960    -0.2830     3.9360 ca         1 I06      -0.122500
     18 CE1         -1.1470    -0.1850     5.4130 ca         1 I06      -0.126500
     19 CE2          1.2490    -0.0810     5.3080 ca         1 I06      -0.126500
     20 CZ           0.0760    -0.0330     6.0510 ca         1 I06      -0.125000
     21 H71          2.5230    -0.3990    -5.3740 ha         1 I06       0.140000
     22 H81          2.8780     0.1820    -3.0060 ha         1 I06       0.160000
     23 H111        -1.7050    -0.5420    -4.7230 ha         1 I06       0.160000
     24 H121         0.2340    -0.7640    -6.2360 ha         1 I06       0.140000
     25 H15         -2.1030     0.6530    -0.2140 hn         1 I06       0.342500
     26 HA1          0.9030     1.2670     1.3430 h1         1 I06       0.073200
     27 HA2         -0.8400     1.3910     1.4270 h1         1 I06       0.073200
     28 HB1         -0.9950    -1.1320     1.5070 hc         1 I06       0.060200
     29 HB2          0.7590    -1.2220     1.4520 hc         1 I06       0.060200
     30 HD11        -2.1550    -0.5100     3.5500 ha         1 I06       0.131500
     31 HD21         2.1150    -0.3250     3.3620 ha         1 I06       0.131500
     32 HE11        -2.0660    -0.1510     5.9860 ha         1 I06       0.132000
     33 HE21         2.2070     0.0370     5.7990 ha         1 I06       0.132000
     34 HZ1          0.1170     0.1180     7.1220 ha         1 I06       0.132000
@<TRIPOS>BOND
     1     1     2 ar  
     2     1     6 ar  
     3     1    21 1   
     4     2     3 ar  
     5     2    22 1   
     6     3     4 ar  
     7     3     7 1   
     8     4     5 ar  
     9     4    11 1   
    10     5     6 ar  
    11     5    23 1   
    12     6    24 1   
    13     7     8 2   
    14     7     9 1   
    15     9    10 1   
    16     9    13 1   
    17    10    11 1   
    18    10    25 1   
    19    11    12 2   
    20    13    14 1   
    21    13    26 1   
    22    13    27 1   
    23    14    15 1   
    24    14    28 1   
    25    14    29 1   
    26    15    16 ar  
    27    15    17 ar  
    28    16    18 ar  
    29    16    30 1   
    30    17    19 ar  
    31    17    31 1   
    32    18    20 ar  
    33    18    32 1   
    34    19    20 ar  
    35    19    33 1   
    36    20    34 1   
@<TRIPOS>SUBSTRUCTURE
     1 I06         1 TEMP              0 ****  ****    0 ROOT
