@<TRIPOS>MOLECULE
I08
   64    67     1     0     0
SMALL
bcc


@<TRIPOS>ATOM
      1 F96          4.7240    -1.4790    -1.1010 f          1 I08      -0.116900
      2 C76          4.9850    -0.6420    -0.0880 ca         1 I08       0.174900
      3 C75          5.7410    -1.1130     0.9840 ca         1 I08       0.064100
      4 O95          6.1670    -2.3870     0.9100 os         1 I08      -0.296900
      5 C98          6.8850    -2.9060     2.0120 c3         1 I08       0.123700
      6 C74          5.9830    -0.2270     2.0240 ca         1 I08      -0.141000
      7 C73          5.4870     1.0730     1.9920 ca         1 I08      -0.208000
      8 C72          4.7310     1.5110     0.9180 ca         1 I08       0.155100
      9 O92          4.2200     2.7530     0.8130 oh         1 I08      -0.484100
     10 C71          4.4730     0.6350    -0.1400 ca         1 I08      -0.211600
     11 C61          3.7010     1.0950    -1.3420 c          1 I08       0.621300
     12 O62          4.2820     1.3080    -2.3850 o          1 I08      -0.499100
     13 C54          2.2440     1.2640    -1.1970 ca         1 I08      -0.158600
     14 C55          1.5080     1.8510    -2.2280 ca         1 I08      -0.073000
     15 C56          0.1410     2.0050    -2.1080 ca         1 I08      -0.139500
     16 C53          1.5700     0.8260    -0.0560 ca         1 I08      -0.073000
     17 C52          0.2010     0.9690     0.0540 ca         1 I08      -0.139500
     18 C51         -0.5410     1.5770    -0.9640 ca         1 I08      -0.026800
     19 C42         -1.9910     1.7580    -0.8920 ce         1 I08      -0.132200
     20 C41         -2.7530     1.5620     0.1850 c2         1 I08      -0.144200
     21 C37         -4.2410     1.7190     0.2090 c3         1 I08      -0.037500
     22 C36         -4.6100     2.7300     1.3080 c3         1 I08      -0.062400
     23 C35         -6.0570     3.2090     1.3380 c3         1 I08      -0.071400
     24 C34         -7.1090     2.1100     1.2970 c3         1 I08       0.171800
     25 N33         -7.0940     1.4340     0.0090 n7         1 I08      -0.831200
     26 C32         -6.3280     0.2120    -0.0660 c3         1 I08       0.164800
     27 C31         -4.9040     0.3420     0.4860 c3         1 I08       0.110700
     28 N23         -4.1230    -0.7540    -0.0530 ns         1 I08      -0.564900
     29 C21         -3.3210    -1.5460     0.6750 c          1 I08       0.681700
     30 O22         -3.2910    -1.5650     1.8960 o          1 I08      -0.597100
     31 C14         -2.4230    -2.4480    -0.1170 ca         1 I08      -0.116600
     32 C13         -2.1410    -3.7210     0.3620 ca         1 I08      -0.213800
     33 C12         -1.2780    -4.5260    -0.3620 ca         1 I08       0.396200
     34 N11         -0.6780    -4.1380    -1.4830 nb         1 I08      -0.650000
     35 C16         -0.9330    -2.9130    -1.9240 ca         1 I08       0.396200
     36 C15         -1.7970    -2.0340    -1.2870 ca         1 I08      -0.213800
     37 H981         7.8180    -2.3620     2.1860 h1         1 I08       0.042700
     38 H982         6.2910    -2.8880     2.9290 h1         1 I08       0.042700
     39 H983         7.1230    -3.9370     1.7670 h1         1 I08       0.042700
     40 H74          6.5640    -0.5320     2.8840 ha         1 I08       0.140000
     41 H73          5.7000     1.7400     2.8190 ha         1 I08       0.138000
     42 H92          4.4650     3.2850     1.5780 ho         1 I08       0.430000
     43 H55          2.0080     2.1950    -3.1230 ha         1 I08       0.145000
     44 H56         -0.4150     2.4680    -2.9150 ha         1 I08       0.135500
     45 H53          2.1100     0.3460     0.7500 ha         1 I08       0.145000
     46 H52         -0.2920     0.5900     0.9390 ha         1 I08       0.135500
     47 H42         -2.4670     2.0810    -1.8130 ha         1 I08       0.122000
     48 H41         -2.2960     1.2690     1.1290 ha         1 I08       0.130000
     49 H37         -4.5710     2.0900    -0.7670 hc         1 I08       0.069700
     50 H361        -4.3530     2.2840     2.2750 hc         1 I08       0.042700
     51 H362        -3.9650     3.6060     1.2030 hc         1 I08       0.042700
     52 H351        -6.1950     3.8130     2.2390 hc         1 I08       0.045700
     53 H352        -6.2370     3.8720     0.4880 hc         1 I08       0.045700
     54 H341        -6.9810     1.4170     2.1420 h1         1 I08       0.031700
     55 H342        -8.0920     2.5670     1.4290 h1         1 I08       0.031700
     56 H33         -8.0360     1.2430    -0.2990 hn         1 I08       0.365800
     57 H321        -6.7980    -0.6340     0.4590 h1         1 I08       0.033700
     58 H322        -6.2680    -0.0730    -1.1210 h1         1 I08       0.033700
     59 H31         -4.9230     0.1970     1.5670 h1         1 I08       0.082700
     60 H23         -4.0850    -0.8330    -1.0580 hn         1 I08       0.315500
     61 H13         -2.5910    -4.0870     1.2750 ha         1 I08       0.152500
     62 H12         -1.0570    -5.5300    -0.0170 h4         1 I08       0.024100
     63 H16         -0.4240    -2.6060    -2.8310 h4         1 I08       0.024100
     64 H15         -1.9410    -1.0420    -1.6940 ha         1 I08       0.152500
@<TRIPOS>BOND
     1     1     2 1   
     2     2     3 ar  
     3     2    10 ar  
     4     3     4 1   
     5     3     6 ar  
     6     4     5 1   
     7     5    37 1   
     8     5    38 1   
     9     5    39 1   
    10     6     7 ar  
    11     6    40 1   
    12     7     8 ar  
    13     7    41 1   
    14     8     9 1   
    15     8    10 ar  
    16     9    42 1   
    17    10    11 1   
    18    11    12 2   
    19    11    13 1   
    20    13    14 ar  
    21    13    16 ar  
    22    14    15 ar  
    23    14    43 1   
    24    15    18 ar  
    25    15    44 1   
    26    16    17 ar  
    27    16    45 1   
    28    17    18 ar  
    29    17    46 1   
    30    18    19 1   
    31    19    20 2   
    32    19    47 1   
    33    20    21 1   
    34    20    48 1   
    35    21    22 1   
    36    21    27 1   
    37    21    49 1   
    38    22    23 1   
    39    22    50 1   
    40    22    51 1   
    41    23    24 1   
    42    23    52 1   
    43    23    53 1   
    44    24    25 1   
    45    24    54 1   
    46    24    55 1   
    47    25    26 1   
    48    25    56 1   
    49    26    27 1   
    50    26    57 1   
    51    26    58 1   
    52    27    28 1   
    53    27    59 1   
    54    28    29 1   
    55    28    60 1   
    56    29    30 2   
    57    29    31 1   
    58    31    32 ar  
    59    31    36 ar  
    60    32    33 ar  
    61    32    61 1   
    62    33    34 ar  
    63    33    62 1   
    64    34    35 ar  
    65    35    36 ar  
    66    35    63 1   
    67    36    64 1   
@<TRIPOS>SUBSTRUCTURE
     1 I08         1 TEMP              0 ****  ****    0 ROOT
