@<TRIPOS>MOLECULE
I08
   64    67     1     0     0
SMALL
No Charge or Current Charge


@<TRIPOS>ATOM
      1 F96          5.1220    -1.3540    -1.2740 f          1 I08      -0.152000
      2 C76          5.2610    -0.5320    -0.2060 ca         1 I08       0.210000
      3 C75          6.0180    -0.9590     0.9070 ca         1 I08       0.064100
      4 O95          6.6120    -2.2100     0.8700 os         1 I08      -0.320100
      5 C98          7.3980    -2.7240     1.9600 c3         1 I08       0.146900
      6 C74          6.1440    -0.1000     2.0230 ca         1 I08      -0.123000
      7 C73          5.5210     1.1610     2.0120 ca         1 I08      -0.190000
      8 C72          4.7700     1.5730     0.9000 ca         1 I08       0.155100
      9 O92          4.1920     2.8060     0.9010 oh         1 I08      -0.523100
     10 C71          4.6320     0.7260    -0.2120 ca         1 I08      -0.211600
     11 C61          3.8390     1.1480    -1.4060 c          1 I08       0.621300
     12 O62          4.4010     1.3480    -2.4770 o          1 I08      -0.499100
     13 C54          2.3400     1.3130    -1.2630 ca         1 I08      -0.158600
     14 C55          1.5910     1.9040    -2.3040 ca         1 I08      -0.055000
     15 C56          0.1980     2.0530    -2.1870 ca         1 I08      -0.121500
     16 C53          1.6580     0.8650    -0.1090 ca         1 I08      -0.055000
     17 C52          0.2650     1.0170     0.0030 ca         1 I08      -0.121500
     18 C51         -0.4760     1.6190    -1.0320 ca         1 I08      -0.026800
     19 C42         -1.9570     1.7730    -0.9520 ce         1 I08      -0.182200
     20 C41         -2.6930     1.7450     0.1830 c2         1 I08      -0.194200
     21 C37         -4.2130     1.8360     0.2450 c3         1 I08      -0.037500
     22 C36         -4.6260     2.8850     1.3120 c3         1 I08      -0.062400
     23 C35         -6.1060     3.3310     1.2850 c3         1 I08      -0.071400
     24 C34         -7.1500     2.1990     1.3920 c3         1 I08       0.171800
     25 N33         -7.2100     1.4420     0.1280 n7         1 I08      -0.886400
     26 C32         -6.3190     0.2620    -0.0130 c3         1 I08       0.164800
     27 C31         -4.8570     0.4370     0.5120 c3         1 I08       0.110700
     28 N23         -3.9910    -0.6310    -0.0100 ns         1 I08      -0.497900
     29 C21         -3.9990    -1.9440     0.4020 c          1 I08       0.614700
     30 O22         -4.8270    -2.3610     1.2000 o          1 I08      -0.597100
     31 C14         -2.9110    -2.8270    -0.1750 ca         1 I08      -0.116600
     32 C13         -2.8780    -4.2080     0.1240 ca         1 I08      -0.130500
     33 C12         -1.8590    -5.0160    -0.4090 ca         1 I08       0.330900
     34 N11         -0.8800    -4.5380    -1.2110 nb         1 I08      -0.650000
     35 C16         -0.8990    -3.2170    -1.5010 ca         1 I08       0.330900
     36 C15         -1.8800    -2.3350    -1.0140 ca         1 I08      -0.130500
     37 H981         8.2630    -2.0780     2.1560 h1         1 I08       0.042700
     38 H982         6.7960    -2.7960     2.8750 h1         1 I08       0.042700
     39 H983         7.7710    -3.7270     1.7190 h1         1 I08       0.042700
     40 H74          6.7180    -0.3900     2.8990 ha         1 I08       0.122000
     41 H73          5.6300     1.8150     2.8740 ha         1 I08       0.120000
     42 H92          4.4080     3.2520     1.7480 ho         1 I08       0.469000
     43 H55          2.0850     2.2530    -3.2090 ha         1 I08       0.127000
     44 H56         -0.3580     2.5110    -3.0020 ha         1 I08       0.117500
     45 H53          2.1960     0.3870     0.7060 ha         1 I08       0.127000
     46 H52         -0.2300     0.6470     0.8960 ha         1 I08       0.117500
     47 H42         -2.4510     1.9140    -1.9150 ha         1 I08       0.172000
     48 H41         -2.2180     1.6210     1.1570 ha         1 I08       0.180000
     49 H37         -4.5710     2.1900    -0.7300 hc         1 I08       0.069700
     50 H361        -4.3870     2.4980     2.3110 hc         1 I08       0.042700
     51 H362        -4.0070     3.7810     1.1790 hc         1 I08       0.042700
     52 H351        -6.2670     4.0240     2.1200 hc         1 I08       0.045700
     53 H352        -6.2930     3.9070     0.3710 hc         1 I08       0.045700
     54 H341        -6.9370     1.5490     2.2520 h1         1 I08       0.031700
     55 H342        -8.1260     2.6710     1.5720 h1         1 I08       0.031700
     56 H33         -8.1750     1.1130    -0.0070 hn         1 I08       0.421000
     57 H321        -6.7620    -0.5930     0.5160 h1         1 I08       0.033700
     58 H322        -6.2740    -0.0170    -1.0740 h1         1 I08       0.033700
     59 H31         -4.8890     0.3040     1.6020 h1         1 I08       0.082700
     60 H23         -3.2630    -0.3620    -0.6560 hn         1 I08       0.315500
     61 H13         -3.6310    -4.6600     0.7630 ha         1 I08       0.134500
     62 H12         -1.8250    -6.0820    -0.1870 h4         1 I08       0.024100
     63 H16         -0.0990    -2.8510    -2.1450 h4         1 I08       0.024100
     64 H15         -1.8120    -1.2880    -1.2930 ha         1 I08       0.134500
@<TRIPOS>BOND
     1     1     2 1   
     2     2     3 ar  
     3     2    10 ar  
     4     3     4 1   
     5     3     6 ar  
     6     4     5 1   
     7     5    37 1   
     8     5    38 1   
     9     5    39 1   
    10     6     7 ar  
    11     6    40 1   
    12     7     8 ar  
    13     7    41 1   
    14     8     9 1   
    15     8    10 ar  
    16     9    42 1   
    17    10    11 1   
    18    11    12 2   
    19    11    13 1   
    20    13    14 ar  
    21    13    16 ar  
    22    14    15 ar  
    23    14    43 1   
    24    15    18 ar  
    25    15    44 1   
    26    16    17 ar  
    27    16    45 1   
    28    17    18 ar  
    29    17    46 1   
    30    18    19 1   
    31    19    20 2   
    32    19    47 1   
    33    20    21 1   
    34    20    48 1   
    35    21    22 1   
    36    21    27 1   
    37    21    49 1   
    38    22    23 1   
    39    22    50 1   
    40    22    51 1   
    41    23    24 1   
    42    23    52 1   
    43    23    53 1   
    44    24    25 1   
    45    24    54 1   
    46    24    55 1   
    47    25    26 1   
    48    25    56 1   
    49    26    27 1   
    50    26    57 1   
    51    26    58 1   
    52    27    28 1   
    53    27    59 1   
    54    28    29 1   
    55    28    60 1   
    56    29    30 2   
    57    29    31 1   
    58    31    32 ar  
    59    31    36 ar  
    60    32    33 ar  
    61    32    61 1   
    62    33    34 ar  
    63    33    62 1   
    64    34    35 ar  
    65    35    36 ar  
    66    35    63 1   
    67    36    64 1   
@<TRIPOS>SUBSTRUCTURE
     1 I08         1 TEMP              0 ****  ****    0 ROOT
