@<TRIPOS>MOLECULE
I09
   68    70     1     0     0
SMALL
No Charge or Current Charge


@<TRIPOS>ATOM
      1 C1           0.1360     0.4290    -1.9330 c5         1 I09       0.094500
      2 C10         -1.3930     0.0430    -2.0440 c          1 I09       0.611100
      3 N11         -2.1190     1.1440    -2.4560 ns         1 I09      -0.508900
      4 C12         -3.5760     1.1720    -2.5950 c3         1 I09       0.107000
      5 C13         -4.2760     1.3430    -1.2300 c3         1 I09      -0.134400
      6 C14         -5.8190     1.3370    -1.3210 c3         1 I09       0.169300
      7 O14         -6.2570     2.4490    -2.1120 oh         1 I09      -0.636000
      8 C15         -6.4980     1.4210     0.0730 c3         1 I09       0.131600
      9 O15         -7.9260     1.4990    -0.0740 oh         1 I09      -0.643000
     10 O10         -1.9060    -1.0470    -1.8170 o          1 I09      -0.585100
     11 N1           1.0790    -0.5470    -2.5910 n7         1 I09      -0.840400
     12 C2           0.5200     0.4100    -0.4050 c5         1 I09      -0.028400
     13 C21          0.6310     1.8450     0.1550 ca         1 I09      -0.070300
     14 C26          1.2530     2.9130    -0.5370 ca         1 I09      -0.105000
     15 C25          1.3140     4.2000     0.0250 ca         1 I09      -0.101000
     16 C22          0.0640     2.1140     1.4200 ca         1 I09      -0.089000
     17 C23          0.1250     3.3990     1.9820 ca         1 I09       0.121000
     18 Cl2         -0.5830     3.6970     3.5640 cl         1 I09      -0.197000
     19 C24          0.7490     4.4440     1.2870 ca         1 I09      -0.098000
     20 C3           1.8910    -0.3670    -0.3660 c5         1 I09       0.024400
     21 C37          3.1230     0.4180    -0.6700 c1         1 I09       0.310900
     22 N37          4.1060     0.9940    -0.9170 n1         1 I09      -0.464000
     23 C31          1.9910    -1.0040     1.0530 ca         1 I09      -0.069300
     24 C32          2.3560    -0.1800     2.1490 ca         1 I09      -0.092000
     25 C33          2.4470    -0.6930     3.4540 ca         1 I09      -0.101000
     26 C36          1.7180    -2.3700     1.3280 ca         1 I09      -0.092000
     27 C35          1.8120    -2.8810     2.6340 ca         1 I09      -0.101000
     28 C34          2.1760    -2.0450     3.6960 ca         1 I09       0.125000
     29 Cl3          2.2900    -2.6890     5.3290 cl         1 I09      -0.196000
     30 C4           1.5690    -1.4200    -1.4910 c5         1 I09       0.190500
     31 C41          2.7610    -2.3280    -1.9410 c3         1 I09      -0.072400
     32 C42          2.4440    -3.6100    -2.7870 c3         1 I09      -0.036000
     33 C45          1.7300    -3.2570    -4.1190 c3         1 I09      -0.088433
     34 C44          3.7880    -4.3110    -3.1240 c3         1 I09      -0.088433
     35 C43          1.5630    -4.6040    -1.9830 c3         1 I09      -0.088433
     36 H1           0.2660     1.4130    -2.3990 h1         1 I09       0.050700
     37 H2          -1.6030     1.9990    -2.6270 hn         1 I09       0.308500
     38 H3          -3.8480     2.0050    -3.2590 h1         1 I09       0.064700
     39 H4          -3.9110     0.2400    -3.0710 h1         1 I09       0.064700
     40 H5          -3.9610     0.5310    -0.5650 hc         1 I09       0.046700
     41 H6          -3.9400     2.2800    -0.7670 hc         1 I09       0.046700
     42 H7          -6.1340     0.3920    -1.7880 h1         1 I09       0.090700
     43 H8          -7.1910     2.5940    -1.8380 ho         1 I09       0.435000
     44 H9          -6.2250     0.5330     0.6580 h1         1 I09       0.018200
     45 H10         -6.1230     2.3030     0.6090 h1         1 I09       0.018200
     46 H11         -8.3100     1.4980     0.8310 ho         1 I09       0.443000
     47 H12          1.8800    -0.0330    -2.9780 hn         1 I09       0.426000
     48 H14         -0.2320    -0.1620     0.1540 hc         1 I09       0.089700
     49 H15          1.7080     2.7560    -1.5120 ha         1 I09       0.116000
     50 H16          1.8000     5.0070    -0.5170 ha         1 I09       0.120000
     51 H17         -0.4240     1.3200     1.9790 ha         1 I09       0.134000
     52 H18          0.7960     5.4380     1.7240 ha         1 I09       0.132000
     53 H19          2.5710     0.8750     1.9960 ha         1 I09       0.126500
     54 H20          2.7280    -0.0410     4.2770 ha         1 I09       0.134000
     55 H21          1.4260    -3.0640     0.5480 ha         1 I09       0.126500
     56 H22          1.6000    -3.9310     2.8230 ha         1 I09       0.134000
     57 H23          0.7400    -2.0650    -1.1710 h1         1 I09       0.088700
     58 H24          3.4810    -1.7190    -2.5020 hc         1 I09       0.048700
     59 H25          3.3030    -2.6530    -1.0440 hc         1 I09       0.048700
     60 H26          2.2960    -2.5050    -4.6810 hc         1 I09       0.036478
     61 H27          1.6270    -4.1460    -4.7530 hc         1 I09       0.036478
     62 H28          0.7220    -2.8660    -3.9390 hc         1 I09       0.036478
     63 H29          4.4400    -3.6520    -3.7100 hc         1 I09       0.036478
     64 H30          4.3260    -4.5920    -2.2100 hc         1 I09       0.036478
     65 H31          3.6210    -5.2240    -3.7080 hc         1 I09       0.036478
     66 H32          1.4130    -5.5330    -2.5460 hc         1 I09       0.036478
     67 H33          2.0370    -4.8660    -1.0290 hc         1 I09       0.036478
     68 H34          0.5720    -4.1860    -1.7710 hc         1 I09       0.036478
@<TRIPOS>BOND
     1     1     2 1   
     2     1    11 1   
     3     1    12 1   
     4     1    36 1   
     5     2     3 1   
     6     2    10 2   
     7     3     4 1   
     8     3    37 1   
     9     4     5 1   
    10     4    38 1   
    11     4    39 1   
    12     5     6 1   
    13     5    40 1   
    14     5    41 1   
    15     6     7 1   
    16     6     8 1   
    17     6    42 1   
    18     7    43 1   
    19     8     9 1   
    20     8    44 1   
    21     8    45 1   
    22     9    46 1   
    23    11    30 1   
    24    11    47 1   
    25    12    13 1   
    26    12    20 1   
    27    12    48 1   
    28    13    14 ar  
    29    13    16 ar  
    30    14    15 ar  
    31    14    49 1   
    32    15    19 ar  
    33    15    50 1   
    34    16    17 ar  
    35    16    51 1   
    36    17    18 1   
    37    17    19 ar  
    38    19    52 1   
    39    20    21 1   
    40    20    23 1   
    41    20    30 1   
    42    21    22 3   
    43    23    24 ar  
    44    23    26 ar  
    45    24    25 ar  
    46    24    53 1   
    47    25    28 ar  
    48    25    54 1   
    49    26    27 ar  
    50    26    55 1   
    51    27    28 ar  
    52    27    56 1   
    53    28    29 1   
    54    30    31 1   
    55    30    57 1   
    56    31    32 1   
    57    31    58 1   
    58    31    59 1   
    59    32    33 1   
    60    32    34 1   
    61    32    35 1   
    62    33    60 1   
    63    33    61 1   
    64    33    62 1   
    65    34    63 1   
    66    34    64 1   
    67    34    65 1   
    68    35    66 1   
    69    35    67 1   
    70    35    68 1   
@<TRIPOS>SUBSTRUCTURE
     1 I09         1 TEMP              0 ****  ****    0 ROOT
