@<TRIPOS>MOLECULE
I09
   68    70     1     0     0
SMALL
bcc


@<TRIPOS>ATOM
      1 C1          -0.1350     0.0500    -1.6890 c5         1 I09       0.094500
      2 C10         -1.6090    -0.3330    -1.7160 c          1 I09       0.678100
      3 N11         -2.4480     0.6760    -1.9740 ns         1 I09      -0.575900
      4 C12         -3.8920     0.5570    -1.9600 c3         1 I09       0.107000
      5 C13         -4.5240     1.8660    -1.5100 c3         1 I09      -0.134400
      6 C14         -6.0410     1.7740    -1.3810 c3         1 I09       0.146100
      7 O14         -6.6560     1.3260    -2.5700 oh         1 I09      -0.573800
      8 C15         -6.6060     3.1050    -0.9120 c3         1 I09       0.108400
      9 O15         -7.9860     2.9660    -0.6750 oh         1 I09      -0.580800
     10 O10         -1.9670    -1.4730    -1.4600 o          1 I09      -0.585100
     11 N1           0.6850    -0.9360    -2.3790 n7         1 I09      -0.785200
     12 C2           0.3400     0.0620    -0.2160 c5         1 I09      -0.028400
     13 C21          0.2020     1.3490     0.5460 ca         1 I09      -0.070300
     14 C26          0.4230     2.6000    -0.0250 ca         1 I09      -0.123000
     15 C25          0.3210     3.7510     0.7430 ca         1 I09      -0.119000
     16 C22         -0.1210     1.2770     1.8990 ca         1 I09      -0.107000
     17 C23         -0.2150     2.4350     2.6530 ca         1 I09       0.029400
     18 CL2         -0.6190     2.3160     4.3350 cl         1 I09      -0.105400
     19 C24          0.0010     3.6820     2.0900 ca         1 I09      -0.116000
     20 C3           1.7780    -0.5160    -0.3060 c5         1 I09       0.024400
     21 C37          2.6640     0.5090    -0.8560 c1         1 I09       0.221700
     22 N37          3.3340     1.3150    -1.3280 n1         1 I09      -0.374800
     23 C31          2.2980    -1.0530     1.0080 ca         1 I09      -0.069300
     24 C32          3.4500    -0.5630     1.6110 ca         1 I09      -0.110000
     25 C33          3.9020    -1.0720     2.8210 ca         1 I09      -0.119000
     26 C36          1.5980    -2.0730     1.6520 ca         1 I09      -0.110000
     27 C35          2.0350    -2.5930     2.8580 ca         1 I09      -0.119000
     28 C34          3.1900    -2.0860     3.4350 ca         1 I09       0.033400
     29 CL3          3.7410    -2.7280     4.9460 cl         1 I09      -0.104400
     30 C4           1.5450    -1.5930    -1.4180 c5         1 I09       0.190500
     31 C41          2.8240    -2.1770    -1.9910 c3         1 I09      -0.072400
     32 C42          2.7020    -3.4240    -2.8880 c3         1 I09      -0.036000
     33 C45          1.9980    -3.1100    -4.2100 c3         1 I09      -0.088433
     34 C44          4.1260    -3.8950    -3.1940 c3         1 I09      -0.088433
     35 C43          1.9540    -4.5430    -2.1620 c3         1 I09      -0.088433
     36 H1           0.0090     1.0290    -2.1520 h1         1 I09       0.050700
     37 H2          -2.0620     1.5650    -2.2490 hn         1 I09       0.308500
     38 H3          -4.2580     0.2730    -2.9500 h1         1 I09       0.064700
     39 H4          -4.1630    -0.2450    -1.2730 h1         1 I09       0.064700
     40 H5          -4.1030     2.1480    -0.5410 hc         1 I09       0.046700
     41 H6          -4.2610     2.6670    -2.2120 hc         1 I09       0.046700
     42 H7          -6.2780     1.0150    -0.6280 h1         1 I09       0.090700
     43 H8          -6.4560     1.9560    -3.2720 ho         1 I09       0.396000
     44 H9          -6.0660     3.4130    -0.0080 h1         1 I09       0.018200
     45 H10         -6.4000     3.8680    -1.6790 h1         1 I09       0.018200
     46 H11         -8.3310     3.8200    -0.4020 ho         1 I09       0.404000
     47 H12          1.2290    -0.4920    -3.1070 hn         1 I09       0.370800
     48 H14         -0.2310    -0.6980     0.3240 hc         1 I09       0.089700
     49 H15          0.6770     2.6970    -1.0720 ha         1 I09       0.134000
     50 H16          0.4930     4.7170     0.2860 ha         1 I09       0.138000
     51 H17         -0.3030     0.3150     2.3620 ha         1 I09       0.152000
     52 H18         -0.0830     4.5810     2.6860 ha         1 I09       0.150000
     53 H19          4.0240     0.2310     1.1510 ha         1 I09       0.144500
     54 H20          4.8010    -0.6760     3.2720 ha         1 I09       0.152000
     55 H21          0.6890    -2.4790     1.2270 ha         1 I09       0.144500
     56 H22          1.4770    -3.3830     3.3420 ha         1 I09       0.152000
     57 H23          0.9790    -2.3900    -0.9250 h1         1 I09       0.088700
     58 H24          3.3660    -1.4000    -2.5430 hc         1 I09       0.048700
     59 H25          3.4630    -2.4430    -1.1410 hc         1 I09       0.048700
     60 H26          2.4960    -2.2930    -4.7390 hc         1 I09       0.036478
     61 H27          2.0180    -3.9840    -4.8640 hc         1 I09       0.036478
     62 H28          0.9570    -2.8270    -4.0600 hc         1 I09       0.036478
     63 H29          4.7020    -3.1150    -3.6970 hc         1 I09       0.036478
     64 H30          4.6620    -4.1690    -2.2830 hc         1 I09       0.036478
     65 H31          4.1150    -4.7710    -3.8470 hc         1 I09       0.036478
     66 H32          1.9450    -5.4540    -2.7640 hc         1 I09       0.036478
     67 H33          2.4260    -4.7810    -1.2060 hc         1 I09       0.036478
     68 H34          0.9130    -4.2780    -1.9640 hc         1 I09       0.036478
@<TRIPOS>BOND
     1     1     2 1   
     2     1    11 1   
     3     1    12 1   
     4     1    36 1   
     5     2     3 1   
     6     2    10 2   
     7     3     4 1   
     8     3    37 1   
     9     4     5 1   
    10     4    38 1   
    11     4    39 1   
    12     5     6 1   
    13     5    40 1   
    14     5    41 1   
    15     6     7 1   
    16     6     8 1   
    17     6    42 1   
    18     7    43 1   
    19     8     9 1   
    20     8    44 1   
    21     8    45 1   
    22     9    46 1   
    23    11    30 1   
    24    11    47 1   
    25    12    13 1   
    26    12    20 1   
    27    12    48 1   
    28    13    14 ar  
    29    13    16 ar  
    30    14    15 ar  
    31    14    49 1   
    32    15    19 ar  
    33    15    50 1   
    34    16    17 ar  
    35    16    51 1   
    36    17    18 1   
    37    17    19 ar  
    38    19    52 1   
    39    20    21 1   
    40    20    23 1   
    41    20    30 1   
    42    21    22 3   
    43    23    24 ar  
    44    23    26 ar  
    45    24    25 ar  
    46    24    53 1   
    47    25    28 ar  
    48    25    54 1   
    49    26    27 ar  
    50    26    55 1   
    51    27    28 ar  
    52    27    56 1   
    53    28    29 1   
    54    30    31 1   
    55    30    57 1   
    56    31    32 1   
    57    31    58 1   
    58    31    59 1   
    59    32    33 1   
    60    32    34 1   
    61    32    35 1   
    62    33    60 1   
    63    33    61 1   
    64    33    62 1   
    65    34    63 1   
    66    34    64 1   
    67    34    65 1   
    68    35    66 1   
    69    35    67 1   
    70    35    68 1   
@<TRIPOS>SUBSTRUCTURE
     1 I09         1 TEMP              0 ****  ****    0 ROOT
