@<TRIPOS>MOLECULE
I0A
   76    81     1     0     0
SMALL
bcc


@<TRIPOS>ATOM
      1 C10         50.6160     0.2660   -16.1440 ca         1 I0A       0.109600
      2 C12         50.2530     0.8010   -13.7920 c6         1 I0A       0.164800
      3 C13         49.1720     1.4110   -12.8870 c6         1 I0A       0.127900
      4 C02         53.2830    -1.1750   -23.1240 ca         1 I0A      -0.279200
      5 C03         54.1610    -1.9590   -22.3850 ca         1 I0A       0.493200
      6 C05         53.1510    -1.3380   -20.4690 ca         1 I0A       0.919900
      7 C07         52.2820    -0.8290   -18.1770 ca         1 I0A       0.159600
      8 C08         52.4820    -1.1430   -16.8340 ca         1 I0A      -0.166000
      9 C09         51.6630    -0.6110   -15.8500 ca         1 I0A      -0.149000
     10 C15         47.6580     1.8140   -14.6140 c6         1 I0A       0.127900
     11 C16         48.3580     0.6060   -15.2380 c6         1 I0A       0.164800
     12 C17         50.4530     0.6050   -17.4970 ca         1 I0A       0.104100
     13 C19         49.8100     2.8550   -17.8310 c3         1 I0A       0.145400
     14 C20         48.9550     3.6220   -18.8190 c3         1 I0A      -0.079400
     15 C21         47.4540     3.5360   -18.5600 c3         1 I0A      -0.068400
     16 C22         46.6440     4.5810   -19.3300 c3         1 I0A      -0.066400
     17 C23         46.7240     4.5570   -20.8580 c3         1 I0A      -0.106400
     18 C24         45.9070     3.4760   -21.5490 c3         1 I0A       0.139400
     19 C26         51.2610     0.0700   -18.4870 ca         1 I0A      -0.155000
     20 C28         52.3120    -0.4700   -22.4170 ca         1 I0A       0.604100
     21 C29         51.3160     0.4300   -22.9870 cc         1 I0A      -0.190000
     22 C30         51.4970     1.3370   -23.9840 cd         1 I0A      -0.049100
     23 C35         51.7970     4.8720   -23.3340 c3         1 I0A      -0.072100
     24 C37         49.4470     1.7540   -23.1120 ca         1 I0A      -0.000200
     25 C38         48.2070     2.3010   -22.7870 ca         1 I0A      -0.242000
     26 C39         47.5140     1.7090   -21.7400 ca         1 I0A       0.172100
     27 C40         48.0250     0.5680   -21.0950 ca         1 I0A      -0.167000
     28 C41         49.2520     0.0490   -21.4300 ca         1 I0A      -0.036000
     29 C42         50.0070     0.6690   -22.4290 ca         1 I0A      -0.091800
     30 N04         54.1160    -2.0460   -21.0730 nb         1 I0A      -0.763000
     31 N06         53.1280    -1.4250   -19.1150 nu         1 I0A      -0.728300
     32 N11         49.7920     0.8270   -15.1660 nh         1 I0A      -0.645000
     33 N27         52.2610    -0.5830   -21.0930 nb         1 I0A      -0.772000
     34 N31         50.3750     2.1410   -24.0750 na         1 I0A      -0.202900
     35 O14         48.4240     2.3840   -13.5710 os         1 I0A      -0.390600
     36 O18         49.4780     1.4690   -17.8930 os         1 I0A      -0.349900
     37 O25         46.3280     2.1460   -21.2760 os         1 I0A      -0.318900
     38 S32         50.2490     3.4630   -25.1270 s6         1 I0A       1.232000
     39 H1          50.4590    -0.2140   -13.4210 h1         1 I0A       0.045700
     40 H2          51.1870     1.3650   -13.7240 h1         1 I0A       0.045700
     41 H3          48.5200     0.6210   -12.4930 h1         1 I0A       0.046450
     42 H4          49.6400     1.8930   -12.0280 h1         1 I0A       0.046450
     43 H5          54.9290    -2.5350   -22.8920 h4         1 I0A       0.037100
     44 H6          53.2750    -1.8240   -16.5470 ha         1 I0A       0.131000
     45 H7          51.8550    -0.9000   -14.8250 ha         1 I0A       0.133000
     46 H8          47.5220     2.5960   -15.3640 h1         1 I0A       0.046450
     47 H9          46.6640     1.5160   -14.2560 h1         1 I0A       0.046450
     48 H10         48.0280     0.4970   -16.2670 h1         1 I0A       0.045700
     49 H11         48.0820    -0.3230   -14.7200 h1         1 I0A       0.045700
     50 H12         50.8680     2.9940   -18.0780 h1         1 I0A       0.038700
     51 H13         49.6550     3.2320   -16.8140 h1         1 I0A       0.038700
     52 H14         49.1930     3.2850   -19.8330 hc         1 I0A       0.044200
     53 H15         49.2730     4.6690   -18.7620 hc         1 I0A       0.044200
     54 H16         47.2740     3.7020   -17.4920 hc         1 I0A       0.049200
     55 H17         47.0890     2.5300   -18.7720 hc         1 I0A       0.049200
     56 H18         46.9770     5.5690   -18.9980 hc         1 I0A       0.036700
     57 H19         45.5930     4.5080   -19.0320 hc         1 I0A       0.036700
     58 H20         47.7630     4.5310   -21.1960 hc         1 I0A       0.044200
     59 H21         46.3230     5.5030   -21.2330 hc         1 I0A       0.044200
     60 H22         45.8770     3.6570   -22.6290 h1         1 I0A       0.055200
     61 H23         44.8750     3.5150   -21.1960 h1         1 I0A       0.055200
     62 H24         51.0830     0.3730   -19.5050 ha         1 I0A       0.183000
     63 H25         52.3510     1.5170   -24.6140 h4         1 I0A       0.198000
     64 H26         50.3470     5.7310   -24.7120 h1         1 I0A       0.103700
     65 H27         49.6180     4.8720   -23.3540 h1         1 I0A       0.103700
     66 H28         51.8760     5.7930   -22.7580 hc         1 I0A       0.055033
     67 H29         51.8880     4.0400   -22.6380 hc         1 I0A       0.055033
     68 H30         52.6310     4.8440   -24.0320 hc         1 I0A       0.055033
     69 H31         47.8070     3.1480   -23.3240 ha         1 I0A       0.148000
     70 H32         47.4410     0.1140   -20.3050 ha         1 I0A       0.151000
     71 H33         49.6290    -0.8190   -20.9080 ha         1 I0A       0.153000
     72 H34         53.8390    -2.0330   -18.7360 hn         1 I0A       0.457800
     73 CL1         53.4180    -1.1320   -24.8410 cl         1 I0A      -0.074400
     74 C34         50.4600     4.8700   -24.0480 c3         1 I0A      -0.205600
     75 O33         48.9020     3.4580   -25.6560 o          1 I0A      -0.584300
     76 O36         51.3860     3.3480   -26.0180 o          1 I0A      -0.584300
@<TRIPOS>BOND
     1     1     9 ar  
     2     1    12 ar  
     3     1    32 1   
     4     2     3 1   
     5     2    32 1   
     6     2    39 1   
     7     2    40 1   
     8     3    35 1   
     9     3    41 1   
    10     3    42 1   
    11     4     5 ar  
    12     4    20 ar  
    13     4    73 1   
    14     5    30 ar  
    15     5    43 1   
    16     6    30 ar  
    17     6    31 1   
    18     6    33 ar  
    19     7     8 ar  
    20     7    19 ar  
    21     7    31 1   
    22     8     9 ar  
    23     8    44 1   
    24     9    45 1   
    25    10    11 1   
    26    10    35 1   
    27    10    46 1   
    28    10    47 1   
    29    11    32 1   
    30    11    48 1   
    31    11    49 1   
    32    12    19 ar  
    33    12    36 1   
    34    13    14 1   
    35    13    36 1   
    36    13    50 1   
    37    13    51 1   
    38    14    15 1   
    39    14    52 1   
    40    14    53 1   
    41    15    16 1   
    42    15    54 1   
    43    15    55 1   
    44    16    17 1   
    45    16    56 1   
    46    16    57 1   
    47    17    18 1   
    48    17    58 1   
    49    17    59 1   
    50    18    37 1   
    51    18    60 1   
    52    18    61 1   
    53    19    62 1   
    54    20    21 1   
    55    20    33 ar  
    56    21    22 2   
    57    21    29 1   
    58    22    34 1   
    59    22    63 1   
    60    23    66 1   
    61    23    67 1   
    62    23    68 1   
    63    23    74 1   
    64    24    25 ar  
    65    24    29 ar  
    66    24    34 1   
    67    25    26 ar  
    68    25    69 1   
    69    26    27 ar  
    70    26    37 1   
    71    27    28 ar  
    72    27    70 1   
    73    28    29 ar  
    74    28    71 1   
    75    31    72 1   
    76    34    38 1   
    77    38    74 1   
    78    38    75 2   
    79    38    76 2   
    80    64    74 1   
    81    65    74 1   
@<TRIPOS>SUBSTRUCTURE
     1 I0A         1 TEMP              0 ****  ****    0 ROOT
