@<TRIPOS>MOLECULE
I0A
   76    81     1     0     0
SMALL
No Charge or Current Charge


@<TRIPOS>ATOM
      1 C10         50.4760     0.2130   -16.1660 ca         1 I0A       0.248000
      2 C12         49.8080     0.8510   -13.8000 c6         1 I0A       0.164800
      3 C13         48.6370     0.5470   -12.8160 c6         1 I0A       0.151100
      4 C02         53.3360    -1.2090   -23.0260 ca         1 I0A      -0.057000
      5 C03         54.3890    -1.7870   -22.2870 ca         1 I0A       0.164900
      6 C05         53.4400    -1.0530   -20.3420 ca         1 I0A       0.393900
      7 C07         52.5090    -0.5510   -18.0130 ca         1 I0A       0.298000
      8 C08         52.3430    -1.2470   -16.8070 ca         1 I0A      -0.148000
      9 C09         51.3410    -0.8680   -15.8940 ca         1 I0A      -0.131000
     10 C15         47.0070     0.6900   -14.5800 c6         1 I0A       0.151100
     11 C16         48.1040     1.0050   -15.6400 c6         1 I0A       0.164800
     12 C17         50.6790     0.9500   -17.3710 ca         1 I0A       0.104100
     13 C19         50.3990     3.2900   -18.0660 c3         1 I0A       0.168600
     14 C20         49.4260     4.0040   -19.0310 c3         1 I0A      -0.079400
     15 C21         47.9590     4.0940   -18.5340 c3         1 I0A      -0.068400
     16 C22         47.0670     5.0610   -19.3560 c3         1 I0A      -0.066400
     17 C23         46.9080     4.7590   -20.8730 c3         1 I0A      -0.106400
     18 C24         45.9550     3.5880   -21.2420 c3         1 I0A       0.162600
     19 C26         51.6970     0.5690   -18.2640 ca         1 I0A      -0.137000
     20 C28         52.3290    -0.5310   -22.2950 ca         1 I0A       0.275800
     21 C29         51.1730     0.1630   -22.8830 cc         1 I0A      -0.190000
     22 C30         51.3070     1.0010   -23.9830 cd         1 I0A      -0.099100
     23 C35         51.5990     4.7020   -23.7800 c3         1 I0A      -0.072100
     24 C37         49.3760     1.5290   -22.9790 ca         1 I0A      -0.000200
     25 C38         48.1950     2.1580   -22.5410 ca         1 I0A      -0.224000
     26 C39         47.6130     1.7390   -21.3180 ca         1 I0A       0.172100
     27 C40         48.1920     0.6810   -20.5900 ca         1 I0A      -0.149000
     28 C41         49.3700     0.0620   -21.0430 ca         1 I0A      -0.018000
     29 C42         49.9470     0.5320   -22.2340 ca         1 I0A      -0.091800
     30 N04         54.4460    -1.7110   -20.9390 nb         1 I0A      -0.237000
     31 N06         53.4450    -1.0170   -18.9500 nu         1 I0A      -0.921900
     32 N11         49.4560     0.5120   -15.2170 nh         1 I0A      -0.783400
     33 N27         52.3990    -0.4810   -20.9560 nb         1 I0A      -0.246000
     34 N31         50.1540     1.8300   -24.1020 na         1 I0A      -0.202900
     35 O14         47.4070     1.1590   -13.2710 os         1 I0A      -0.437000
     36 O18         49.8550     2.0020   -17.7260 os         1 I0A      -0.373100
     37 O25         46.4870     2.3310   -20.7820 os         1 I0A      -0.342100
     38 S32         49.8840     3.0460   -25.3030 s6         1 I0A       1.201200
     39 H1          50.6920     0.2850   -13.4720 h1         1 I0A       0.045700
     40 H2          50.0640     1.9180   -13.7280 h1         1 I0A       0.045700
     41 H3          48.4900    -0.5390   -12.7350 h1         1 I0A       0.046450
     42 H4          48.8820     0.9330   -11.8160 h1         1 I0A       0.046450
     43 H5          55.1940    -2.3290   -22.7800 h4         1 I0A       0.037100
     44 H6          52.9660    -2.1100   -16.5880 ha         1 I0A       0.113000
     45 H7          51.2100    -1.4430   -14.9820 ha         1 I0A       0.115000
     46 H8          46.0630     1.1760   -14.8650 h1         1 I0A       0.046450
     47 H9          46.8310    -0.3950   -14.5370 h1         1 I0A       0.046450
     48 H10         48.1330     2.0940   -15.7970 h1         1 I0A       0.045700
     49 H11         47.8110     0.5430   -16.5940 h1         1 I0A       0.045700
     50 H12         51.3750     3.2040   -18.5600 h1         1 I0A       0.038700
     51 H13         50.5360     3.8930   -17.1590 h1         1 I0A       0.038700
     52 H14         49.4540     3.4840   -19.9950 hc         1 I0A       0.044200
     53 H15         49.8080     5.0160   -19.2100 hc         1 I0A       0.044200
     54 H16         47.9640     4.4420   -17.4930 hc         1 I0A       0.049200
     55 H17         47.5110     3.0950   -18.5180 hc         1 I0A       0.049200
     56 H18         47.4840     6.0710   -19.2550 hc         1 I0A       0.036700
     57 H19         46.0710     5.1010   -18.8970 hc         1 I0A       0.036700
     58 H20         47.8900     4.6170   -21.3360 hc         1 I0A       0.044200
     59 H21         46.4960     5.6600   -21.3430 hc         1 I0A       0.044200
     60 H22         45.7850     3.5680   -22.3260 h1         1 I0A       0.055200
     61 H23         44.9800     3.7710   -20.7710 h1         1 I0A       0.055200
     62 H24         51.8270     1.1380   -19.1750 ha         1 I0A       0.165000
     63 H25         52.1550     1.1230   -24.6530 h4         1 I0A       0.248000
     64 H26         50.0210     5.3970   -25.1330 h1         1 I0A       0.103700
     65 H27         49.4160     4.6520   -23.6280 h1         1 I0A       0.103700
     66 H28         51.7200     5.6710   -23.2810 hc         1 I0A       0.055033
     67 H29         51.7630     3.9170   -23.0310 hc         1 I0A       0.055033
     68 H30         52.3780     4.6180   -24.5470 hc         1 I0A       0.055033
     69 H31         47.7530     2.9590   -23.1210 ha         1 I0A       0.130000
     70 H32         47.7380     0.3590   -19.6570 ha         1 I0A       0.133000
     71 H33         49.8230    -0.7420   -20.4690 ha         1 I0A       0.135000
     72 H34         54.1640    -1.6200   -18.5510 hn         1 I0A       0.513000
     73 Cl1         53.2980    -1.3980   -24.7820 cl         1 I0A      -0.166000
     74 C34         50.1840     4.5940   -24.4060 c3         1 I0A      -0.316400
     75 O33         48.4530     3.0290   -25.6400 o          1 I0A      -0.513500
     76 O36         50.9150     2.8870   -26.3390 o          1 I0A      -0.513500
@<TRIPOS>BOND
     1     1     9 ar  
     2     1    12 ar  
     3     1    32 1   
     4     2     3 1   
     5     2    32 1   
     6     2    39 1   
     7     2    40 1   
     8     3    35 1   
     9     3    41 1   
    10     3    42 1   
    11     4     5 ar  
    12     4    20 ar  
    13     4    73 1   
    14     5    30 ar  
    15     5    43 1   
    16     6    30 ar  
    17     6    31 1   
    18     6    33 ar  
    19     7     8 ar  
    20     7    19 ar  
    21     7    31 1   
    22     8     9 ar  
    23     8    44 1   
    24     9    45 1   
    25    10    11 1   
    26    10    35 1   
    27    10    46 1   
    28    10    47 1   
    29    11    32 1   
    30    11    48 1   
    31    11    49 1   
    32    12    19 ar  
    33    12    36 1   
    34    13    14 1   
    35    13    36 1   
    36    13    50 1   
    37    13    51 1   
    38    14    15 1   
    39    14    52 1   
    40    14    53 1   
    41    15    16 1   
    42    15    54 1   
    43    15    55 1   
    44    16    17 1   
    45    16    56 1   
    46    16    57 1   
    47    17    18 1   
    48    17    58 1   
    49    17    59 1   
    50    18    37 1   
    51    18    60 1   
    52    18    61 1   
    53    19    62 1   
    54    20    21 1   
    55    20    33 ar  
    56    21    22 2   
    57    21    29 1   
    58    22    34 1   
    59    22    63 1   
    60    23    66 1   
    61    23    67 1   
    62    23    68 1   
    63    23    74 1   
    64    24    25 ar  
    65    24    29 ar  
    66    24    34 1   
    67    25    26 ar  
    68    25    69 1   
    69    26    27 ar  
    70    26    37 1   
    71    27    28 ar  
    72    27    70 1   
    73    28    29 ar  
    74    28    71 1   
    75    31    72 1   
    76    34    38 1   
    77    38    74 1   
    78    38    75 2   
    79    38    76 2   
    80    64    74 1   
    81    65    74 1   
@<TRIPOS>SUBSTRUCTURE
     1 I0A         1 TEMP              0 ****  ****    0 ROOT
