@<TRIPOS>MOLECULE
I0B
   84    88     1     0     0
SMALL
No Charge or Current Charge


@<TRIPOS>ATOM
      1 N1           4.6460    19.0270   -26.9370 nb         1 I0B      -0.301000
      2 C7           3.1710    25.7660   -29.7020 c3         1 I0B       0.160800
      3 C8           1.7730    27.6310   -30.6110 c3         1 I0B       0.143800
      4 N2           3.8910    20.1000   -28.9710 nb         1 I0B      -0.218000
      5 C9           0.3410    28.1670   -30.8730 c3         1 I0B       0.098000
      6 O1           0.3300    30.5960   -29.3660 o          1 I0B      -0.663100
      7 C1           3.9630    19.0610   -28.1050 ca         1 I0B       0.184900
      8 C5           4.1440    22.8340   -30.5400 c5         1 I0B       0.272300
      9 C6           3.4870    25.0480   -31.0530 c5         1 I0B       0.124300
     10 N3           5.9340    22.5040   -27.2980 nc         1 I0B      -0.551100
     11 C4           5.5560    23.1600   -28.4110 cd         1 I0B       0.401700
     12 C3           5.3010    21.2770   -27.4580 ca         1 I0B      -0.104600
     13 O3           1.9200    21.6850   -30.9810 oh         1 I0B      -0.671000
     14 C2           4.5770    21.2070   -28.6220 ca         1 I0B       0.137500
     15 N4           4.7170    22.4130   -29.2610 na         1 I0B      -0.296300
     16 C24         -2.3530    34.2690   -27.1520 ca         1 I0B       0.013100
     17 C23         -1.6340    33.0850   -27.3800 ca         1 I0B      -0.164000
     18 C25         -2.0810    35.0530   -26.0190 ca         1 I0B      -0.133000
     19 C26         -1.0840    34.6520   -25.1130 ca         1 I0B      -0.084000
     20 C27         -0.3620    33.4680   -25.3470 ca         1 I0B      -0.137000
     21 C22         -0.6400    32.6780   -26.4770 ca         1 I0B       0.350000
     22 N9           0.0890    31.5370   -26.7580 nu         1 I0B      -0.935200
     23 C21          0.4240    30.5060   -26.0040 c2         1 I0B       0.851100
     24 N10          0.0680    30.3470   -24.8190 n2         1 I0B      -0.900100
     25 N8           0.8550    29.4990   -26.7490 nu         1 I0B      -0.977400
     26 C20          1.8070    28.4850   -26.2910 c3         1 I0B       0.229800
     27 C19          2.4420    27.7870   -27.5050 c3         1 I0B      -0.124400
     28 C18          1.4690    26.8370   -28.2520 c3         1 I0B       0.169800
     29 O            4.6240    24.1630   -30.8810 os         1 I0B      -0.449000
     30 C28          2.3650    24.0960   -31.5850 c5         1 I0B       0.150300
     31 O2           2.5850    23.7290   -32.9660 oh         1 I0B      -0.687000
     32 C29          2.5740    22.9080   -30.5860 c5         1 I0B       0.141300
     33 C            5.3140    20.1450   -26.6160 ca         1 I0B       0.451900
     34 N            6.0040    20.1130   -25.4450 nv         1 I0B      -1.064900
     35 N6           0.3500    29.5430   -31.3860 ns         1 I0B      -0.503900
     36 C10          0.3740    30.6490   -30.5840 c          1 I0B       0.649100
     37 N7           0.4460    31.8150   -31.2910 ns         1 I0B      -0.521900
     38 C11          0.4540    33.1540   -30.6950 c3         1 I0B       0.161300
     39 C12          1.6420    33.4230   -29.7700 ca         1 I0B      -0.106300
     40 C17          2.9140    32.8670   -30.0250 ca         1 I0B      -0.106000
     41 C16          3.9880    33.1210   -29.1550 ca         1 I0B      -0.106000
     42 C15          3.8030    33.9370   -28.0270 ca         1 I0B      -0.102000
     43 C14          2.5440    34.5060   -27.7740 ca         1 I0B      -0.106000
     44 C13          1.4710    34.2540   -28.6450 ca         1 I0B      -0.106000
     45 H1           3.1990    25.0170   -28.9000 h1         1 I0B       0.044700
     46 H2           3.9920    26.4660   -29.4980 h1         1 I0B       0.044700
     47 H3           2.1790    27.3420   -31.5880 h1         1 I0B       0.033200
     48 H4           2.3980    28.4630   -30.2630 h1         1 I0B       0.033200
     49 H5          -0.2550    28.1520   -29.9550 h1         1 I0B       0.073200
     50 H6          -0.1610    27.5120   -31.5970 h1         1 I0B       0.073200
     51 H7           3.4150    18.1600   -28.3770 h5         1 I0B       0.048100
     52 H8           4.5030    22.1210   -31.2940 h2         1 I0B       0.127700
     53 H9           3.7460    25.8140   -31.7950 h1         1 I0B       0.074700
     54 H10          5.8500    24.1720   -28.6640 h5         1 I0B       0.061800
     55 H11          2.1710    20.9970   -30.3210 ho         1 I0B       0.514000
     56 H13         -2.6390    35.9710   -25.8440 ha         1 I0B       0.126000
     57 H14         -0.8660    35.2600   -24.2370 ha         1 I0B       0.112000
     58 H15          0.4190    33.1650   -24.6570 ha         1 I0B       0.151000
     59 H16          0.0930    31.2870   -27.7440 hn         1 I0B       0.532000
     60 H17          0.3230    29.3810   -24.6010 hn         1 I0B       0.379400
     61 H18          0.8840    29.7140   -27.7440 hn         1 I0B       0.484000
     62 H19          1.3130    27.7470   -25.6430 h1         1 I0B       0.040200
     63 H20          2.6060    28.9670   -25.7110 h1         1 I0B       0.040200
     64 H21          3.3030    27.2030   -27.1610 hc         1 I0B       0.045200
     65 H22          2.8400    28.5560   -28.1750 hc         1 I0B       0.045200
     66 H23          0.4680    27.2850   -28.2460 h1         1 I0B       0.068200
     67 H24          1.3740    25.9180   -27.6570 h1         1 I0B       0.068200
     68 H26          1.3680    24.5410   -31.4570 h1         1 I0B       0.079700
     69 H27          2.3130    24.4970   -33.5190 ho         1 I0B       0.505000
     70 H28          2.1950    23.1980   -29.5960 h1         1 I0B       0.039700
     71 H29          6.2210    19.2040   -25.0450 hn         1 I0B       0.507500
     72 H30          6.6860    20.8530   -25.2920 hn         1 I0B       0.507500
     73 H31          0.3810    29.6880   -32.3860 hn         1 I0B       0.297500
     74 H32          0.4780    31.7410   -32.2990 hn         1 I0B       0.312500
     75 H33         -0.4830    33.2890   -30.1390 h1         1 I0B       0.064700
     76 H34          0.4630    33.8950   -31.5060 h1         1 I0B       0.064700
     77 H35          3.0730    32.2330   -30.8950 ha         1 I0B       0.110000
     78 H36          4.9640    32.6830   -29.3540 ha         1 I0B       0.114000
     79 H37          4.6340    34.1320   -27.3530 ha         1 I0B       0.116000
     80 H38          2.3990    35.1420   -26.9030 ha         1 I0B       0.114000
     81 H39          0.5020    34.7050   -28.4410 ha         1 I0B       0.110000
     82 N5           1.8680    26.4890   -29.6500 n3         1 I0B      -0.747600
     83 H12         -1.8460    32.4850   -28.2600 ha         1 I0B       0.134000
     84 Br          -3.6960    34.8180   -28.3950 br         1 I0B      -0.123100
@<TRIPOS>BOND
     1     1     7 ar  
     2     1    33 ar  
     3     2     9 1   
     4     2    45 1   
     5     2    46 1   
     6     2    82 1   
     7     3     5 1   
     8     3    47 1   
     9     3    48 1   
    10     3    82 1   
    11     4     7 ar  
    12     4    14 ar  
    13     5    35 1   
    14     5    49 1   
    15     5    50 1   
    16     6    36 2   
    17     7    51 1   
    18     8    15 1   
    19     8    29 1   
    20     8    32 1   
    21     8    52 1   
    22     9    29 1   
    23     9    30 1   
    24     9    53 1   
    25    10    11 2   
    26    10    12 1   
    27    11    15 1   
    28    11    54 1   
    29    12    14 ar  
    30    12    33 ar  
    31    13    32 1   
    32    13    55 1   
    33    14    15 1   
    34    16    17 ar  
    35    16    18 ar  
    36    16    84 1   
    37    17    21 ar  
    38    17    83 1   
    39    18    19 ar  
    40    18    56 1   
    41    19    20 ar  
    42    19    57 1   
    43    20    21 ar  
    44    20    58 1   
    45    21    22 1   
    46    22    23 1   
    47    22    59 1   
    48    23    24 2   
    49    23    25 1   
    50    24    60 1   
    51    25    26 1   
    52    25    61 1   
    53    26    27 1   
    54    26    62 1   
    55    26    63 1   
    56    27    28 1   
    57    27    64 1   
    58    27    65 1   
    59    28    66 1   
    60    28    67 1   
    61    28    82 1   
    62    30    31 1   
    63    30    32 1   
    64    30    68 1   
    65    31    69 1   
    66    32    70 1   
    67    33    34 1   
    68    34    71 1   
    69    34    72 1   
    70    35    36 1   
    71    35    73 1   
    72    36    37 1   
    73    37    38 1   
    74    37    74 1   
    75    38    39 1   
    76    38    75 1   
    77    38    76 1   
    78    39    40 ar  
    79    39    44 ar  
    80    40    41 ar  
    81    40    77 1   
    82    41    42 ar  
    83    41    78 1   
    84    42    43 ar  
    85    42    79 1   
    86    43    44 ar  
    87    43    80 1   
    88    44    81 1   
@<TRIPOS>SUBSTRUCTURE
     1 I0B         1 TEMP              0 ****  ****    0 ROOT
