@<TRIPOS>MOLECULE
I0B
   84    88     1     0     0
SMALL
abcg2


@<TRIPOS>ATOM
      1 N1           6.5770    18.7420   -28.9710 nb         1 I0B      -0.301000
      2 C7           2.7480    25.7680   -29.2680 c3         1 I0B       0.160800
      3 C8           1.8860    27.8180   -30.2790 c3         1 I0B       0.143800
      4 N2           4.9550    19.9800   -30.2140 nb         1 I0B      -0.218000
      5 C9           0.5620    28.2500   -30.9140 c3         1 I0B       0.098000
      6 O1          -0.0660    30.7930   -29.9140 o          1 I0B      -0.663100
      7 C1           5.7630    18.9560   -30.0020 ca         1 I0B       0.184900
      8 C5           3.3550    22.5800   -30.0180 c5         1 I0B       0.272300
      9 C6           2.6010    24.7500   -30.3950 c5         1 I0B       0.124300
     10 N3           5.6450    21.8910   -27.2990 nc         1 I0B      -0.551100
     11 C4           4.7560    22.6050   -27.9220 cd         1 I0B       0.401700
     12 C3           5.8240    20.7940   -28.1020 ca         1 I0B      -0.104600
     13 O3           1.1850    21.5510   -29.4790 oh         1 I0B      -0.671000
     14 C2           5.0220    20.8730   -29.2300 ca         1 I0B       0.137500
     15 N4           4.3330    22.0450   -29.0990 na         1 I0B      -0.296300
     16 C24         -2.1180    34.7490   -27.8060 ca         1 I0B       0.013100
     17 C23         -1.4430    33.5550   -27.9560 ca         1 I0B      -0.164000
     18 C25         -2.2140    35.3940   -26.5820 ca         1 I0B      -0.133000
     19 C26         -1.5940    34.7920   -25.4960 ca         1 I0B      -0.084000
     20 C27         -0.8970    33.5990   -25.6120 ca         1 I0B      -0.137000
     21 C22         -0.8040    32.9660   -26.8560 ca         1 I0B       0.350000
     22 N9          -0.0900    31.8130   -27.1080 nu         1 I0B      -0.935200
     23 C21          0.4620    30.9180   -26.2140 c2         1 I0B       0.851100
     24 N10          0.1590    30.9290   -24.9700 n2         1 I0B      -0.900100
     25 N8           1.2890    30.0340   -26.8490 nu         1 I0B      -0.977400
     26 C20          1.9270    28.9270   -26.1770 c3         1 I0B       0.229800
     27 C19          2.4500    27.9360   -27.2070 c3         1 I0B      -0.124400
     28 C18          1.3210    27.2630   -28.0000 c3         1 I0B       0.169800
     29 O            3.7330    23.8710   -30.4020 os         1 I0B      -0.449000
     30 C28          1.3750    23.8480   -30.2490 c5         1 I0B       0.150300
     31 O2           0.9550    23.3120   -31.4780 oh         1 I0B      -0.687000
     32 C29          1.9480    22.7140   -29.4130 c5         1 I0B       0.141300
     33 C            6.6350    19.6510   -27.9900 ca         1 I0B       0.451900
     34 N            7.4440    19.4370   -26.9510 nv         1 I0B      -1.064900
     35 N6           0.6870    29.5020   -31.6250 ns         1 I0B      -0.503900
     36 C10          0.5400    30.6920   -30.9820 c          1 I0B       0.649100
     37 N7           1.0690    31.7690   -31.6120 ns         1 I0B      -0.521900
     38 C11          1.0020    33.0890   -31.0440 c3         1 I0B       0.161300
     39 C12          1.8200    33.2990   -29.7890 ca         1 I0B      -0.106300
     40 C17          2.8050    32.4080   -29.3790 ca         1 I0B      -0.106000
     41 C16          3.5300    32.6410   -28.2160 ca         1 I0B      -0.106000
     42 C15          3.2860    33.7760   -27.4540 ca         1 I0B      -0.102000
     43 C14          2.3150    34.6790   -27.8670 ca         1 I0B      -0.106000
     44 C13          1.5880    34.4390   -29.0230 ca         1 I0B      -0.106000
     45 H1           2.6910    25.2490   -28.3060 h1         1 I0B       0.044700
     46 H2           3.7560    26.2070   -29.3150 h1         1 I0B       0.044700
     47 H3           2.5590    27.4790   -31.0700 h1         1 I0B       0.033200
     48 H4           2.3710    28.7010   -29.8360 h1         1 I0B       0.033200
     49 H5          -0.2110    28.3610   -30.1560 h1         1 I0B       0.073200
     50 H6           0.2160    27.4820   -31.6070 h1         1 I0B       0.073200
     51 H7           5.7660    18.1840   -30.7650 h5         1 I0B       0.048100
     52 H8           3.3350    21.8930   -30.8710 h2         1 I0B       0.127700
     53 H9           2.5760    25.2730   -31.3580 h1         1 I0B       0.074700
     54 H10          4.3730    23.5530   -27.5730 h5         1 I0B       0.061800
     55 H11          1.4770    20.9540   -28.7840 ho         1 I0B       0.514000
     56 H13         -2.7480    36.3280   -26.4700 ha         1 I0B       0.126000
     57 H14         -1.6540    35.2710   -24.5270 ha         1 I0B       0.112000
     58 H15         -0.4320    33.1580   -24.7460 ha         1 I0B       0.151000
     59 H16         -0.0190    31.5570   -28.0880 hn         1 I0B       0.532000
     60 H17          0.7100    30.2550   -24.4530 hn         1 I0B       0.379400
     61 H18          1.7350    30.3520   -27.6970 hn         1 I0B       0.484000
     62 H19          1.1940    28.4330   -25.5320 h1         1 I0B       0.040200
     63 H20          2.7480    29.2560   -25.5300 h1         1 I0B       0.040200
     64 H21          3.0560    27.1860   -26.6950 hc         1 I0B       0.045200
     65 H22          3.1320    28.4640   -27.8820 hc         1 I0B       0.045200
     66 H23          0.5050    27.9770   -28.1360 h1         1 I0B       0.068200
     67 H24          0.9080    26.4400   -27.4100 h1         1 I0B       0.068200
     68 H26          0.5620    24.3740   -29.7360 h1         1 I0B       0.079700
     69 H27          0.6430    24.0350   -32.0320 ho         1 I0B       0.505000
     70 H28          2.0390    23.0720   -28.3790 h1         1 I0B       0.039700
     71 H29          8.0360    18.6240   -26.9290 hn         1 I0B       0.507500
     72 H30          7.5420    20.1180   -26.2190 hn         1 I0B       0.507500
     73 H31          1.2520    29.4830   -32.4600 hn         1 I0B       0.297500
     74 H32          1.6550    31.6360   -32.4190 hn         1 I0B       0.312500
     75 H33         -0.0370    33.3610   -30.8450 h1         1 I0B       0.064700
     76 H34          1.3460    33.7800   -31.8150 h1         1 I0B       0.064700
     77 H35          3.0150    31.5190   -29.9620 ha         1 I0B       0.110000
     78 H36          4.2870    31.9320   -27.9060 ha         1 I0B       0.114000
     79 H37          3.8470    33.9550   -26.5460 ha         1 I0B       0.116000
     80 H38          2.1160    35.5680   -27.2820 ha         1 I0B       0.114000
     81 H39          0.8240    35.1440   -29.3290 ha         1 I0B       0.110000
     82 N5           1.6930    26.7570   -29.3100 n3         1 I0B      -0.747600
     83 H12         -1.3890    33.0690   -28.9220 ha         1 I0B       0.134000
     84 BR          -2.9210    35.5270   -29.3340 br         1 I0B      -0.123100
@<TRIPOS>BOND
     1     1     7 ar  
     2     1    33 ar  
     3     2     9 1   
     4     2    45 1   
     5     2    46 1   
     6     2    82 1   
     7     3     5 1   
     8     3    47 1   
     9     3    48 1   
    10     3    82 1   
    11     4     7 ar  
    12     4    14 ar  
    13     5    35 1   
    14     5    49 1   
    15     5    50 1   
    16     6    36 2   
    17     7    51 1   
    18     8    15 1   
    19     8    29 1   
    20     8    32 1   
    21     8    52 1   
    22     9    29 1   
    23     9    30 1   
    24     9    53 1   
    25    10    11 2   
    26    10    12 1   
    27    11    15 1   
    28    11    54 1   
    29    12    14 ar  
    30    12    33 ar  
    31    13    32 1   
    32    13    55 1   
    33    14    15 1   
    34    16    17 ar  
    35    16    18 ar  
    36    16    84 1   
    37    17    21 ar  
    38    17    83 1   
    39    18    19 ar  
    40    18    56 1   
    41    19    20 ar  
    42    19    57 1   
    43    20    21 ar  
    44    20    58 1   
    45    21    22 1   
    46    22    23 1   
    47    22    59 1   
    48    23    24 2   
    49    23    25 1   
    50    24    60 1   
    51    25    26 1   
    52    25    61 1   
    53    26    27 1   
    54    26    62 1   
    55    26    63 1   
    56    27    28 1   
    57    27    64 1   
    58    27    65 1   
    59    28    66 1   
    60    28    67 1   
    61    28    82 1   
    62    30    31 1   
    63    30    32 1   
    64    30    68 1   
    65    31    69 1   
    66    32    70 1   
    67    33    34 1   
    68    34    71 1   
    69    34    72 1   
    70    35    36 1   
    71    35    73 1   
    72    36    37 1   
    73    37    38 1   
    74    37    74 1   
    75    38    39 1   
    76    38    75 1   
    77    38    76 1   
    78    39    40 ar  
    79    39    44 ar  
    80    40    41 ar  
    81    40    77 1   
    82    41    42 ar  
    83    41    78 1   
    84    42    43 ar  
    85    42    79 1   
    86    43    44 ar  
    87    43    80 1   
    88    44    81 1   
@<TRIPOS>SUBSTRUCTURE
     1 I0B         1 TEMP              0 ****  ****    0 ROOT
