@<TRIPOS>MOLECULE
I0D
   38    40     1     0     0
SMALL
No Charge or Current Charge


@<TRIPOS>ATOM
      1 C13         -3.2260    -1.0770    -0.5050 ca         1 I0D      -0.054300
      2 C17         -3.0340    -2.2910    -1.1900 ca         1 I0D      -0.115000
      3 C21         -0.6620    -1.8170    -1.3910 ca         1 I0D      -0.133000
      4 C26          1.5810    -0.0070    -0.0720 cc         1 I0D       0.145400
      5 N05         -4.8090     0.7360     0.3000 n3         1 I0D      -0.710600
      6 C06         -3.7210     1.2020     1.1920 c6         1 I0D       0.165800
      7 C09         -2.3450     1.1010     0.4930 c6         1 I0D      -0.030100
      8 C12         -2.1210    -0.2290    -0.2490 ca         1 I0D      -0.077300
      9 C14         -4.6350    -0.7040    -0.0260 c6         1 I0D       0.207100
     10 C19         -1.7560    -2.6610    -1.6350 ca         1 I0D      -0.092000
     11 C23         -0.8310    -0.6080    -0.6940 ca         1 I0D       0.275000
     12 N24          0.2730     0.2290    -0.4860 nu         1 I0D      -0.835000
     13 C27          1.9650    -1.3130     0.4340 cc         1 I0D       0.317500
     14 N29          3.1730    -1.6790     0.8670 nd         1 I0D      -0.400300
     15 N30          4.1150    -0.6460     0.8030 n          1 I0D      -0.133800
     16 C31          5.4610    -1.0350     1.2780 c3         1 I0D       0.098300
     17 C35          3.9250     0.6910     0.3540 c          1 I0D       0.564200
     18 O36          4.8260     1.5240     0.3480 o          1 I0D      -0.531000
     19 C37          2.5410     0.9780    -0.1010 cd         1 I0D      -0.142200
     20 Cl3          2.2120     2.6010    -0.6640 cl         1 I0D      -0.156000
     21 H1          -3.8800    -2.9480    -1.3820 ha         1 I0D       0.117000
     22 H2           0.3200    -2.0990    -1.7610 ha         1 I0D       0.126000
     23 H3          -6.2750     2.1090     1.0110 h1         1 I0D       0.033367
     24 H4          -6.9330     0.7160     0.1290 h1         1 I0D       0.033367
     25 H5          -6.3230     0.5080     1.7880 h1         1 I0D       0.033367
     26 H7          -3.8850     2.2470     1.4950 h1         1 I0D       0.037200
     27 H8          -3.7020     0.5980     2.1110 h1         1 I0D       0.037200
     28 H9          -2.2560     1.9260    -0.2270 hc         1 I0D       0.058200
     29 H10         -1.5600     1.2590     1.2450 hc         1 I0D       0.058200
     30 H11         -5.3570    -0.9960    -0.8030 h1         1 I0D       0.044200
     31 H12         -4.8600    -1.3180     0.8590 h1         1 I0D       0.044200
     32 H13         -1.6160    -3.5960    -2.1730 ha         1 I0D       0.120000
     33 H14          0.0550     1.2260    -0.5490 hn         1 I0D       0.514000
     34 H15          1.2450    -2.1170     0.5020 h4         1 I0D       0.055800
     35 H16          5.4750    -2.0870     1.5900 h1         1 I0D       0.057700
     36 H17          6.1910    -0.8960     0.4710 h1         1 I0D       0.057700
     37 H18          5.7460    -0.4090     2.1330 h1         1 I0D       0.057700
     38 C01         -6.1550     1.0320     0.8370 c3         1 I0D       0.152100
@<TRIPOS>BOND
     1     1     2 ar  
     2     1     8 ar  
     3     1     9 1   
     4     2    10 ar  
     5     2    21 1   
     6     3    10 ar  
     7     3    11 ar  
     8     3    22 1   
     9     4    12 1   
    10     4    13 1   
    11     4    19 2   
    12     5     6 1   
    13     5     9 1   
    14     5    38 1   
    15     6     7 1   
    16     6    26 1   
    17     6    27 1   
    18     7     8 1   
    19     7    28 1   
    20     7    29 1   
    21     8    11 ar  
    22     9    30 1   
    23     9    31 1   
    24    10    32 1   
    25    11    12 1   
    26    12    33 1   
    27    13    14 2   
    28    13    34 1   
    29    14    15 1   
    30    15    16 1   
    31    15    17 1   
    32    16    35 1   
    33    16    36 1   
    34    16    37 1   
    35    17    18 2   
    36    17    19 1   
    37    19    20 1   
    38    23    38 1   
    39    24    38 1   
    40    25    38 1   
@<TRIPOS>SUBSTRUCTURE
     1 I0D         1 TEMP              0 ****  ****    0 ROOT
