@<TRIPOS>MOLECULE
I0D
   38    40     1     0     0
SMALL
abcg2


@<TRIPOS>ATOM
      1 C13         -3.1610    -1.0520    -0.4830 ca         1 I0D      -0.054300
      2 C17         -2.9400    -2.2530    -1.1530 ca         1 I0D      -0.115000
      3 C21         -0.6120    -1.7220    -1.3850 ca         1 I0D      -0.133000
      4 C26          1.4880     0.0720    -0.0880 cc         1 I0D       0.145400
      5 N05         -4.7040     0.6830     0.3130 n3         1 I0D      -0.710600
      6 C06         -3.6660     1.1030     1.2320 c6         1 I0D       0.165800
      7 C09         -2.3180     1.0890     0.5300 c6         1 I0D      -0.030100
      8 C12         -2.0970    -0.1900    -0.2280 ca         1 I0D      -0.077300
      9 C14         -4.5510    -0.7160    -0.0120 c6         1 I0D       0.207100
     10 C19         -1.6730    -2.5900    -1.5950 ca         1 I0D      -0.092000
     11 C23         -0.8220    -0.5350    -0.6940 ca         1 I0D       0.275000
     12 N24          0.2340     0.3730    -0.4890 nu         1 I0D      -0.835000
     13 C27          1.7990    -1.1860     0.5280 cc         1 I0D       0.317500
     14 N29          2.9780    -1.5000     0.9390 nd         1 I0D      -0.400300
     15 N30          3.9730    -0.6450     0.8020 n          1 I0D      -0.133800
     16 C31          5.2740    -1.0810     1.2810 c3         1 I0D       0.098300
     17 C35          3.8590     0.6240     0.2620 c          1 I0D       0.564200
     18 O36          4.8320     1.3620     0.1860 o          1 I0D      -0.531000
     19 C37          2.5380     0.9500    -0.1860 cd         1 I0D      -0.142200
     20 CL3          2.3260     2.5120    -0.8730 cl         1 I0D      -0.156000
     21 H1          -3.7720    -2.9220    -1.3380 ha         1 I0D       0.117000
     22 H2           0.3710    -1.9620    -1.7710 ha         1 I0D       0.126000
     23 H3          -6.1450     2.0170     1.0200 h1         1 I0D       0.033367
     24 H4          -6.7760     0.6680     0.0740 h1         1 I0D       0.033367
     25 H5          -6.2620     0.4040     1.7460 h1         1 I0D       0.033367
     26 H7          -3.8840     2.1160     1.5770 h1         1 I0D       0.037200
     27 H8          -3.6320     0.4620     2.1300 h1         1 I0D       0.037200
     28 H9          -2.2640     1.9430    -0.1540 hc         1 I0D       0.058200
     29 H10         -1.5220     1.2320     1.2650 hc         1 I0D       0.058200
     30 H11         -5.2680    -0.9800    -0.7950 h1         1 I0D       0.044200
     31 H12         -4.7950    -1.3620     0.8520 h1         1 I0D       0.044200
     32 H13         -1.5100    -3.5170    -2.1300 ha         1 I0D       0.120000
     33 H14          0.0620     1.3330    -0.7530 hn         1 I0D       0.514000
     34 H15          1.0320    -1.9300     0.6900 h4         1 I0D       0.055800
     35 H16          5.1710    -2.0990     1.6390 h1         1 I0D       0.057700
     36 H17          6.0080    -1.0550     0.4780 h1         1 I0D       0.057700
     37 H18          5.6210    -0.4460     2.0950 h1         1 I0D       0.057700
     38 C01         -6.0300     0.9510     0.8190 c3         1 I0D       0.152100
@<TRIPOS>BOND
     1     1     2 ar  
     2     1     8 ar  
     3     1     9 1   
     4     2    10 ar  
     5     2    21 1   
     6     3    10 ar  
     7     3    11 ar  
     8     3    22 1   
     9     4    12 1   
    10     4    13 1   
    11     4    19 2   
    12     5     6 1   
    13     5     9 1   
    14     5    38 1   
    15     6     7 1   
    16     6    26 1   
    17     6    27 1   
    18     7     8 1   
    19     7    28 1   
    20     7    29 1   
    21     8    11 ar  
    22     9    30 1   
    23     9    31 1   
    24    10    32 1   
    25    11    12 1   
    26    12    33 1   
    27    13    14 2   
    28    13    34 1   
    29    14    15 1   
    30    15    16 1   
    31    15    17 1   
    32    16    35 1   
    33    16    36 1   
    34    16    37 1   
    35    17    18 2   
    36    17    19 1   
    37    19    20 1   
    38    23    38 1   
    39    24    38 1   
    40    25    38 1   
@<TRIPOS>SUBSTRUCTURE
     1 I0D         1 TEMP              0 ****  ****    0 ROOT
