@<TRIPOS>MOLECULE
I0E
   52    53     1     0     0
SMALL
No Charge or Current Charge


@<TRIPOS>ATOM
      1 C10        -28.7280     6.0290   -26.5160 c3         1 I0E       0.171600
      2 C13        -29.4450     4.2530   -28.6850 ca         1 I0E      -0.210000
      3 C15        -31.0900     3.5210   -30.3170 ca         1 I0E      -0.153000
      4 C17        -31.5640     5.4560   -28.9020 ca         1 I0E      -0.067300
      5 C20        -31.1740     8.4790   -29.5580 c3         1 I0E      -0.061100
      6 C21        -33.6790     8.7570   -29.1450 c          1 I0E       0.716000
      7 C24        -28.4540    11.7660   -25.8830 ca         1 I0E       0.192300
      8 C26        -29.9580    11.5600   -27.9370 c3         1 I0E      -0.084100
      9 C02        -26.6850    13.1880   -25.5750 ca         1 I0E       0.390900
     10 C04        -26.4320    11.0950   -24.7620 ca         1 I0E       0.389900
     11 C06        -27.7190    10.7460   -25.2280 ca         1 I0E      -0.119900
     12 C08        -28.3640     8.5470   -26.0930 c3         1 I0E       0.149600
     13 C09        -28.6560     7.1640   -25.4780 c3         1 I0E      -0.080400
     14 C12        -30.3000     5.3040   -28.2780 ca         1 I0E       0.137100
     15 C14        -29.8400     3.3670   -29.7000 ca         1 I0E      -0.101000
     16 C16        -31.9470     4.5600   -29.9200 ca         1 I0E      -0.087000
     17 C19        -32.5440     7.7630   -29.4870 c3         1 I0E      -0.186700
     18 N03        -25.9070    12.3120   -24.9340 nb         1 I0E      -0.336000
     19 N05        -25.6340    10.2150   -24.1000 nv         1 I0E      -1.072900
     20 N27        -27.9220    12.9970   -26.0530 nb         1 I0E      -0.274000
     21 O07        -28.2270     9.4760   -25.0030 os         1 I0E      -0.354100
     22 O11        -29.9300     6.1940   -27.2850 os         1 I0E      -0.332100
     23 O23        -33.6640     9.3180   -28.0600 o          1 I0E      -0.736500
     24 H1         -28.7430     5.0650   -25.9910 h1         1 I0E       0.025200
     25 H2         -27.8390     6.0630   -27.1600 h1         1 I0E       0.025200
     26 H3         -28.4700     4.1090   -28.2290 ha         1 I0E       0.099000
     27 H4         -31.3950     2.8350   -31.1040 ha         1 I0E       0.100000
     28 H5         -31.2280     9.3510   -30.2210 hc         1 I0E       0.013700
     29 H6         -30.8640     8.8180   -28.5640 hc         1 I0E       0.013700
     30 H7         -30.3990     7.8070   -29.9470 hc         1 I0E       0.013700
     31 H8         -30.9910    11.3910   -28.2660 hc         1 I0E       0.046033
     32 H9         -29.6180    12.5110   -28.3630 hc         1 I0E       0.046033
     33 H10        -29.3290    10.7590   -28.3440 hc         1 I0E       0.046033
     34 H11        -27.4330     8.4960   -26.6730 h1         1 I0E       0.050700
     35 H12        -29.1770     8.8370   -26.7690 h1         1 I0E       0.050700
     36 H13        -29.5960     7.2010   -24.9130 hc         1 I0E       0.053700
     37 H14        -27.8620     6.9240   -24.7610 hc         1 I0E       0.053700
     38 H15        -29.1770     2.5620   -30.0090 ha         1 I0E       0.093000
     39 H16        -32.9140     4.6690   -30.4050 ha         1 I0E       0.118000
     40 H19        -32.7480     7.3630   -30.4880 hc         1 I0E       0.027700
     41 H24        -24.8460    10.5820   -23.5730 hn         1 I0E       0.485500
     42 H25        -26.0630     9.3610   -23.7530 hn         1 I0E       0.485500
     43 C25        -29.8800    11.5880   -26.3960 c3         1 I0E      -0.134700
     44 C18        -32.5360     6.5680   -28.4970 c3         1 I0E      -0.018100
     45 N01        -26.1610    14.4220   -25.7490 nv         1 I0E      -1.052900
     46 O22        -34.5580     8.9310   -29.9760 o          1 I0E      -0.736500
     47 H17        -33.5500     6.1540   -28.4450 hc         1 I0E       0.056700
     48 H18        -32.3210     6.9330   -27.4860 hc         1 I0E       0.056700
     49 H20        -30.5070    12.4100   -26.0290 hc         1 I0E       0.071700
     50 H21        -30.3310    10.6740   -25.9940 hc         1 I0E       0.071700
     51 H22        -26.7820    15.1780   -26.0280 hn         1 I0E       0.475000
     52 H23        -25.3290    14.6770   -25.2230 hn         1 I0E       0.475000
@<TRIPOS>BOND
     1     1    13 1   
     2     1    22 1   
     3     1    24 1   
     4     1    25 1   
     5     2    14 ar  
     6     2    15 ar  
     7     2    26 1   
     8     3    15 ar  
     9     3    16 ar  
    10     3    27 1   
    11     4    14 ar  
    12     4    16 ar  
    13     4    44 1   
    14     5    17 1   
    15     5    28 1   
    16     5    29 1   
    17     5    30 1   
    18     6    17 1   
    19     6    23 1   
    20     6    46 1   
    21     7    11 ar  
    22     7    20 ar  
    23     7    43 1   
    24     8    31 1   
    25     8    32 1   
    26     8    33 1   
    27     8    43 1   
    28     9    18 ar  
    29     9    20 ar  
    30     9    45 1   
    31    10    11 ar  
    32    10    18 ar  
    33    10    19 1   
    34    11    21 1   
    35    12    13 1   
    36    12    21 1   
    37    12    34 1   
    38    12    35 1   
    39    13    36 1   
    40    13    37 1   
    41    14    22 1   
    42    15    38 1   
    43    16    39 1   
    44    17    40 1   
    45    17    44 1   
    46    19    41 1   
    47    19    42 1   
    48    43    49 1   
    49    43    50 1   
    50    44    47 1   
    51    44    48 1   
    52    45    51 1   
    53    45    52 1   
@<TRIPOS>SUBSTRUCTURE
     1 I0E         1 TEMP              0 ****  ****    0 ROOT
