@<TRIPOS>MOLECULE
I0E
   52    53     1     0     0
SMALL
bcc


@<TRIPOS>ATOM
      1 C10        -28.6510     6.0340   -26.5470 c3         1 I0E       0.148400
      2 C13        -29.4240     4.2530   -28.6020 ca         1 I0E      -0.228000
      3 C15        -31.1190     3.5470   -30.1560 ca         1 I0E      -0.171000
      4 C17        -31.4740     5.5400   -28.8080 ca         1 I0E      -0.067300
      5 C20        -30.9060     8.3780   -29.7110 c3         1 I0E      -0.061100
      6 C21        -33.2500     9.0000   -29.0620 c          1 I0E       0.926600
      7 C24        -28.6740    11.7070   -25.8650 ca         1 I0E       0.520600
      8 C26        -30.2560    11.8070   -27.8150 c3         1 I0E      -0.084100
      9 C02        -26.8510    13.0560   -25.6900 ca         1 I0E       0.916900
     10 C04        -26.6350    10.9450   -24.8950 ca         1 I0E       0.718200
     11 C06        -27.9710    10.6800   -25.2750 ca         1 I0E      -0.250500
     12 C08        -28.3840     8.5020   -26.0710 c3         1 I0E       0.126400
     13 C09        -28.5840     7.1160   -25.4890 c3         1 I0E      -0.080400
     14 C12        -30.2140     5.3370   -28.2230 ca         1 I0E       0.137100
     15 C14        -29.8800     3.3630   -29.5670 ca         1 I0E      -0.119000
     16 C16        -31.8980     4.6310   -29.7690 ca         1 I0E      -0.105000
     17 C19        -32.3170     7.8410   -29.4820 c3         1 I0E      -0.186700
     18 N03        -26.0840    12.1330   -25.1070 nb         1 I0E      -0.862000
     19 N05        -25.8830     9.9850   -24.3240 nv         1 I0E      -0.962500
     20 N27        -28.1130    12.9070   -26.0680 nb         1 I0E      -0.800000
     21 O07        -28.4960     9.4470   -25.0080 os         1 I0E      -0.330900
     22 O11        -29.8350     6.2380   -27.2940 os         1 I0E      -0.308900
     23 O23        -33.0750     9.4660   -27.9140 o          1 I0E      -0.841800
     24 H1         -28.6630     5.0500   -26.0660 h1         1 I0E       0.025200
     25 H2         -27.7680     6.0720   -27.1970 h1         1 I0E       0.025200
     26 H3         -28.4520     4.0890   -28.1570 ha         1 I0E       0.117000
     27 H4         -31.4810     2.8560   -30.9060 ha         1 I0E       0.118000
     28 H5         -30.9100     9.1810   -30.4500 hc         1 I0E       0.013700
     29 H6         -30.4830     8.7790   -28.7890 hc         1 I0E       0.013700
     30 H7         -30.2330     7.6020   -30.0780 hc         1 I0E       0.013700
     31 H8         -31.2940    11.6650   -28.1130 hc         1 I0E       0.046033
     32 H9         -29.9570    12.8190   -28.0820 hc         1 I0E       0.046033
     33 H10        -29.6480    11.1110   -28.3940 hc         1 I0E       0.046033
     34 H11        -27.3980     8.5700   -26.5440 h1         1 I0E       0.050700
     35 H12        -29.1320     8.7220   -26.8390 h1         1 I0E       0.050700
     36 H13        -29.4980     7.0870   -24.8900 hc         1 I0E       0.053700
     37 H14        -27.7550     6.8820   -24.8170 hc         1 I0E       0.053700
     38 H15        -29.2560     2.5260   -29.8520 ha         1 I0E       0.111000
     39 H16        -32.8730     4.7770   -30.2220 ha         1 I0E       0.136000
     40 H19        -32.6780     7.4320   -30.4320 hc         1 I0E       0.027700
     41 H24        -25.0020    10.2480   -23.9170 hn         1 I0E       0.430300
     42 H25        -26.3280     9.1650   -23.9480 hn         1 I0E       0.430300
     43 C25        -30.0980    11.5590   -26.3160 c3         1 I0E      -0.134700
     44 C18        -32.3450     6.7120   -28.4410 c3         1 I0E      -0.018100
     45 N01        -26.2630    14.2550   -25.9500 nv         1 I0E      -0.942500
     46 O22        -34.0840     9.3960   -29.9010 o          1 I0E      -0.841800
     47 H17        -33.3760     6.3560   -28.3440 hc         1 I0E       0.056700
     48 H18        -32.0650     7.1160   -27.4700 hc         1 I0E       0.056700
     49 H20        -30.7040    12.2840   -25.7660 hc         1 I0E       0.071700
     50 H21        -30.4870    10.5730   -26.0640 hc         1 I0E       0.071700
     51 H22        -26.8760    15.0310   -26.1340 hn         1 I0E       0.419800
     52 H23        -25.4290    14.4800   -25.4340 hn         1 I0E       0.419800
@<TRIPOS>BOND
     1     1    13 1   
     2     1    22 1   
     3     1    24 1   
     4     1    25 1   
     5     2    14 ar  
     6     2    15 ar  
     7     2    26 1   
     8     3    15 ar  
     9     3    16 ar  
    10     3    27 1   
    11     4    14 ar  
    12     4    16 ar  
    13     4    44 1   
    14     5    17 1   
    15     5    28 1   
    16     5    29 1   
    17     5    30 1   
    18     6    17 1   
    19     6    23 1   
    20     6    46 1   
    21     7    11 ar  
    22     7    20 ar  
    23     7    43 1   
    24     8    31 1   
    25     8    32 1   
    26     8    33 1   
    27     8    43 1   
    28     9    18 ar  
    29     9    20 ar  
    30     9    45 1   
    31    10    11 ar  
    32    10    18 ar  
    33    10    19 1   
    34    11    21 1   
    35    12    13 1   
    36    12    21 1   
    37    12    34 1   
    38    12    35 1   
    39    13    36 1   
    40    13    37 1   
    41    14    22 1   
    42    15    38 1   
    43    16    39 1   
    44    17    40 1   
    45    17    44 1   
    46    19    41 1   
    47    19    42 1   
    48    43    49 1   
    49    43    50 1   
    50    44    47 1   
    51    44    48 1   
    52    45    51 1   
    53    45    52 1   
@<TRIPOS>SUBSTRUCTURE
     1 I0E         1 TEMP              0 ****  ****    0 ROOT
