@<TRIPOS>MOLECULE
I0F
   50    51     1     0     0
SMALL
No Charge or Current Charge


@<TRIPOS>ATOM
      1 N1          34.2270    23.6970    28.6240 ns         1 I0F      -0.496900
      2 C4          32.5650    20.7670    26.0070 c6         1 I0F       0.148300
      3 C5          32.1670    20.8840    27.5130 c6         1 I0F       0.146300
      4 C6          32.0760    19.4930    28.2270 c3         1 I0F       0.164600
      5 C7          33.9330    24.2010    29.8730 c          1 I0F       0.638300
      6 C8          35.0890    24.6830    30.7080 ce         1 I0F      -0.156900
      7 C10         35.8230    25.7350    32.9730 ca         1 I0F      -0.181800
      8 C13         37.5500    26.7790    34.9750 ca         1 I0F       0.379000
      9 C15         36.9880    26.4470    32.6180 ca         1 I0F      -0.009500
     10 C17         39.8680    27.4580    35.7290 c3         1 I0F       0.215100
     11 C16         37.9070    27.6930    37.3080 c3         1 I0F       0.215100
     12 N13         38.4150    27.2950    35.9740 nh         1 I0F      -0.816400
     13 C14         37.8410    26.9560    33.6110 ca         1 I0F      -0.218000
     14 C12         36.3780    26.0870    35.3270 ca         1 I0F      -0.218000
     15 C11         35.5200    25.5750    34.3390 ca         1 I0F      -0.009500
     16 C9          34.8800    25.1890    31.9660 cf         1 I0F       0.022800
     17 C88         36.3990    24.5460    30.1500 cg         1 I0F       0.300700
     18 N88         37.4450    24.4160    29.6510 n1         1 I0F      -0.483000
     19 O7          32.7760    24.2620    30.2660 o          1 I0F      -0.595100
     20 C1          33.2630    23.0460    27.7450 c6         1 I0F       0.301700
     21 O5          33.1410    21.6940    28.2250 os         1 I0F      -0.458000
     22 O4          31.5800    20.0410    25.2420 oh         1 I0F      -0.704000
     23 C3          32.7480    22.1960    25.4140 c6         1 I0F       0.180300
     24 O3          33.1930    22.1320    24.0490 oh         1 I0F      -0.644000
     25 C2          33.7580    23.0210    26.2610 c6         1 I0F       0.091300
     26 O2          33.8960    24.3500    25.6990 oh         1 I0F      -0.717000
     27 H13         35.2060    23.6330    28.3800 hn         1 I0F       0.321500
     28 H41         33.5360    20.2500    25.9540 h1         1 I0F       0.071700
     29 H5          31.1830    21.3700    27.5910 h1         1 I0F       0.053700
     30 H62         31.3470    18.8730    27.6880 h1         1 I0F       0.034200
     31 H61         31.6650    19.6630    29.2320 h1         1 I0F       0.034200
     32 H15         37.2310    26.6380    31.5760 ha         1 I0F       0.117500
     33 H9N         40.4300    27.4220    36.6720 h1         1 I0F       0.042367
     34 H9O         40.2460    26.6490    35.0890 h1         1 I0F       0.042367
     35 H17         40.0710    28.4200    35.2400 h1         1 I0F       0.042367
     36 H9M         38.5620    28.4450    37.7680 h1         1 I0F       0.042367
     37 H16         36.9050    28.1350    37.2250 h1         1 I0F       0.042367
     38 H9L         37.8540    26.8230    37.9760 h1         1 I0F       0.042367
     39 H14         38.7240    27.5100    33.3070 ha         1 I0F       0.118000
     40 H12         36.1270    25.9280    36.3700 ha         1 I0F       0.118000
     41 H11         34.6220    25.0400    34.6410 ha         1 I0F       0.117500
     42 H9          33.8460    25.2040    32.3190 ha         1 I0F       0.200000
     43 H1          32.2920    23.5630    27.8120 h2         1 I0F       0.082700
     44 H63         33.1800    17.9850    28.8530 ho         1 I0F       0.504000
     45 H42         31.7860    20.2450    24.2980 ho         1 I0F       0.509000
     46 H31         31.7760    22.7100    25.4590 h1         1 I0F       0.053700
     47 H32         33.5730    23.0240    23.8750 ho         1 I0F       0.458000
     48 H21         34.7300    22.5040    26.2370 h1         1 I0F       0.055700
     49 H22         34.4690    24.8760    26.3070 ho         1 I0F       0.517000
     50 O6          33.3400    18.8030    28.3280 oh         1 I0F      -0.715000
@<TRIPOS>BOND
     1     1     5 1   
     2     1    20 1   
     3     1    27 1   
     4     2     3 1   
     5     2    22 1   
     6     2    23 1   
     7     2    28 1   
     8     3     4 1   
     9     3    21 1   
    10     3    29 1   
    11     4    30 1   
    12     4    31 1   
    13     4    50 1   
    14     5     6 1   
    15     5    19 2   
    16     6    16 2   
    17     6    17 1   
    18     7     9 ar  
    19     7    15 ar  
    20     7    16 1   
    21     8    12 1   
    22     8    13 ar  
    23     8    14 ar  
    24     9    13 ar  
    25     9    32 1   
    26    10    12 1   
    27    10    33 1   
    28    10    34 1   
    29    10    35 1   
    30    11    12 1   
    31    11    36 1   
    32    11    37 1   
    33    11    38 1   
    34    13    39 1   
    35    14    15 ar  
    36    14    40 1   
    37    15    41 1   
    38    16    42 1   
    39    17    18 3   
    40    20    21 1   
    41    20    25 1   
    42    20    43 1   
    43    22    45 1   
    44    23    24 1   
    45    23    25 1   
    46    23    46 1   
    47    24    47 1   
    48    25    26 1   
    49    25    48 1   
    50    26    49 1   
    51    44    50 1   
@<TRIPOS>SUBSTRUCTURE
     1 I0F         1 TEMP              0 ****  ****    0 ROOT
