@<TRIPOS>MOLECULE
I0F
   50    51     1     0     0
SMALL
bcc


@<TRIPOS>ATOM
      1 N1          34.3480    23.6280    28.6520 ns         1 I0F      -0.563900
      2 C4          32.5640    20.9190    26.0230 c6         1 I0F       0.125100
      3 C5          32.3340    20.8810    27.5410 c6         1 I0F       0.123100
      4 C6          32.2820    19.4830    28.1180 c3         1 I0F       0.141400
      5 C7          34.0940    24.1200    29.8910 c          1 I0F       0.705300
      6 C8          35.2590    24.7090    30.6110 ce         1 I0F      -0.156900
      7 C10         35.9660    25.6650    32.8760 ca         1 I0F      -0.181800
      8 C13         37.5450    26.7630    34.9800 ca         1 I0F       0.240600
      9 C15         37.3400    25.9210    32.7070 ca         1 I0F      -0.027500
     10 C17         39.7140    27.5120    35.7700 c3         1 I0F       0.215100
     11 C16         37.7020    27.5890    37.2530 c3         1 I0F       0.215100
     12 N13         38.2990    27.2780    35.9710 nh         1 I0F      -0.678000
     13 C14         38.1050    26.4490    33.7150 ca         1 I0F      -0.236000
     14 C12         36.1640    26.5080    35.1550 ca         1 I0F      -0.236000
     15 C11         35.4180    25.9780    34.1350 ca         1 I0F      -0.027500
     16 C9          35.0840    25.1030    31.9040 cf         1 I0F       0.072800
     17 C88         36.4820    24.8440    29.9110 cg         1 I0F       0.211500
     18 N88         37.4530    24.9410    29.2920 n1         1 I0F      -0.393800
     19 O7          32.9830    24.0980    30.3910 o          1 I0F      -0.595100
     20 C1          33.3510    22.9690    27.8750 c6         1 I0F       0.278500
     21 O5          33.3570    21.6000    28.2020 os         1 I0F      -0.411600
     22 O4          31.5190    20.2700    25.3400 oh         1 I0F      -0.581800
     23 C3          32.6000    22.3690    25.5640 c6         1 I0F       0.157100
     24 O3          32.9090    22.4010    24.1960 oh         1 I0F      -0.581800
     25 C2          33.6240    23.1530    26.3810 c6         1 I0F       0.068100
     26 O2          33.5130    24.5020    26.0010 oh         1 I0F      -0.594800
     27 H13         35.3050    23.5400    28.3390 hn         1 I0F       0.321500
     28 H41         33.5350    20.4620    25.7950 h1         1 I0F       0.071700
     29 H5          31.3540    21.3410    27.7500 h1         1 I0F       0.053700
     30 H62         31.3880    18.9850    27.7260 h1         1 I0F       0.034200
     31 H61         32.1400    19.5650    29.2040 h1         1 I0F       0.034200
     32 H15         37.8350    25.7020    31.7720 ha         1 I0F       0.135500
     33 H9N         40.1460    27.8970    36.6880 h1         1 I0F       0.042367
     34 H9O         40.2430    26.5930    35.5120 h1         1 I0F       0.042367
     35 H17         39.8970    28.2440    34.9810 h1         1 I0F       0.042367
     36 H9M         38.4580    28.0160    37.9050 h1         1 I0F       0.042367
     37 H16         36.8950    28.3170    37.1570 h1         1 I0F       0.042367
     38 H9L         37.3020    26.6970    37.7430 h1         1 I0F       0.042367
     39 H14         39.1540    26.6200    33.5250 ha         1 I0F       0.136000
     40 H12         35.6780    26.7210    36.0960 ha         1 I0F       0.136000
     41 H11         34.3640    25.7910    34.3080 ha         1 I0F       0.135500
     42 H9          34.0710    24.9530    32.2640 ha         1 I0F       0.150000
     43 H1          32.3760    23.4130    28.1130 h2         1 I0F       0.082700
     44 H63         33.3700    17.8800    28.0980 ho         1 I0F       0.405000
     45 H42         31.6950    19.3240    25.3350 ho         1 I0F       0.410000
     46 H31         31.6080    22.8110    25.7580 h1         1 I0F       0.053700
     47 H32         32.9160    23.3210    23.9130 ho         1 I0F       0.419000
     48 H21         34.6250    22.7510    26.1580 h1         1 I0F       0.055700
     49 H22         34.3030    24.9740    26.2820 ho         1 I0F       0.418000
     50 O6          33.4620    18.7870    27.7930 oh         1 I0F      -0.592800
@<TRIPOS>BOND
     1     1     5 1   
     2     1    20 1   
     3     1    27 1   
     4     2     3 1   
     5     2    22 1   
     6     2    23 1   
     7     2    28 1   
     8     3     4 1   
     9     3    21 1   
    10     3    29 1   
    11     4    30 1   
    12     4    31 1   
    13     4    50 1   
    14     5     6 1   
    15     5    19 2   
    16     6    16 2   
    17     6    17 1   
    18     7     9 ar  
    19     7    15 ar  
    20     7    16 1   
    21     8    12 1   
    22     8    13 ar  
    23     8    14 ar  
    24     9    13 ar  
    25     9    32 1   
    26    10    12 1   
    27    10    33 1   
    28    10    34 1   
    29    10    35 1   
    30    11    12 1   
    31    11    36 1   
    32    11    37 1   
    33    11    38 1   
    34    13    39 1   
    35    14    15 ar  
    36    14    40 1   
    37    15    41 1   
    38    16    42 1   
    39    17    18 3   
    40    20    21 1   
    41    20    25 1   
    42    20    43 1   
    43    22    45 1   
    44    23    24 1   
    45    23    25 1   
    46    23    46 1   
    47    24    47 1   
    48    25    26 1   
    49    25    48 1   
    50    26    49 1   
    51    44    50 1   
@<TRIPOS>SUBSTRUCTURE
     1 I0F         1 TEMP              0 ****  ****    0 ROOT
