@<TRIPOS>MOLECULE
I0G
   39    42     1     0     0
SMALL
No Charge or Current Charge


@<TRIPOS>ATOM
      1 C4          -0.8570    -5.2910    -1.2060 c5         1 I0G      -0.014400
      2 C6          -0.6390    -3.8080    -0.8360 ca         1 I0G      -0.105300
      3 C7          -1.5940    -2.8370    -1.2150 ca         1 I0G      -0.114000
      4 C8          -1.4200    -1.4830    -0.8870 ca         1 I0G       0.107100
      5 C10         -0.2810    -1.0690    -0.1830 ca         1 I0G      -0.174000
      6 C17          3.1840    -7.5150    -0.2390 ca         1 I0G      -0.054000
      7 C21          3.6970    -7.0920     2.4880 ca         1 I0G      -0.178500
      8 C22          2.7920    -6.2590     1.8080 ca         1 I0G      -0.054000
      9 C24         -2.0560    -5.7790     0.8370 c5         1 I0G      -0.079400
     10 C1          -0.6010    -6.2970     1.0460 c5         1 I0G      -0.068400
     11 C2           0.1070    -6.1590    -0.3520 c5         1 I0G      -0.095700
     12 O9          -2.3630    -0.5710    -1.2580 oh         1 I0G      -0.537100
     13 C11          0.6930    -2.0140     0.1800 ca         1 I0G      -0.100000
     14 C12          0.5290    -3.3690    -0.1550 ca         1 I0G       0.105100
     15 O13          1.5280    -4.2470     0.2170 os         1 I0G      -0.344100
     16 C14          1.5380    -5.5780    -0.3350 c6         1 I0G       0.236600
     17 C16          2.5290    -6.4640     0.4360 ca         1 I0G      -0.120300
     18 C18          4.0890    -8.3460     0.4450 ca         1 I0G      -0.178500
     19 C19          4.3440    -8.1330     1.8080 ca         1 I0G       0.143100
     20 O20          5.2190    -8.9350     2.4780 oh         1 I0G      -0.533100
     21 C23         -2.2370    -5.8060    -0.7010 c5         1 I0G      -0.070400
     22 H4          -0.7220    -5.4600    -2.2810 hc         1 I0G       0.062700
     23 H7          -2.4810    -3.1300    -1.7710 ha         1 I0G       0.126000
     24 H10         -0.1390    -0.0230     0.0780 ha         1 I0G       0.114000
     25 H21          3.8940    -6.9290     3.5440 ha         1 I0G       0.121000
     26 H22          2.2970    -5.4570     2.3500 ha         1 I0G       0.119500
     27 H241        -2.1720    -4.7630     1.2330 hc         1 I0G       0.046200
     28 H242        -2.7960    -6.4030     1.3520 hc         1 I0G       0.046200
     29 H11A        -0.1010    -5.7170     1.8300 hc         1 I0G       0.048700
     30 H12         -0.5910    -7.3410     1.3810 hc         1 I0G       0.048700
     31 H2           0.2050    -7.1500    -0.8100 hc         1 I0G       0.058700
     32 HO9         -2.0770     0.3160    -0.9490 ho         1 I0G       0.462000
     33 H11          1.5840    -1.6970     0.7160 ha         1 I0G       0.127000
     34 H14          1.8860    -5.4970    -1.3750 h1         1 I0G       0.048700
     35 H18          4.5850    -9.1520    -0.0910 ha         1 I0G       0.121000
     36 HO20         5.5720    -9.6010     1.8500 ho         1 I0G       0.464000
     37 H231        -2.4270    -6.8260    -1.0550 hc         1 I0G       0.046700
     38 H232        -3.0850    -5.1980    -1.0330 hc         1 I0G       0.046700
     39 H17          2.9900    -7.6890    -1.2960 ha         1 I0G       0.119500
@<TRIPOS>BOND
     1     1     2 1   
     2     1    11 1   
     3     1    21 1   
     4     1    22 1   
     5     2     3 ar  
     6     2    14 ar  
     7     3     4 ar  
     8     3    23 1   
     9     4     5 ar  
    10     4    12 1   
    11     5    13 ar  
    12     5    24 1   
    13     6    17 ar  
    14     6    18 ar  
    15     6    39 1   
    16     7     8 ar  
    17     7    19 ar  
    18     7    25 1   
    19     8    17 ar  
    20     8    26 1   
    21     9    10 1   
    22     9    21 1   
    23     9    27 1   
    24     9    28 1   
    25    10    11 1   
    26    10    29 1   
    27    10    30 1   
    28    11    16 1   
    29    11    31 1   
    30    12    32 1   
    31    13    14 ar  
    32    13    33 1   
    33    14    15 1   
    34    15    16 1   
    35    16    17 1   
    36    16    34 1   
    37    18    19 ar  
    38    18    35 1   
    39    19    20 1   
    40    20    36 1   
    41    21    37 1   
    42    21    38 1   
@<TRIPOS>SUBSTRUCTURE
     1 I0G         1 TEMP              0 ****  ****    0 ROOT
