@<TRIPOS>MOLECULE
I0G
   39    42     1     0     0
SMALL
bcc


@<TRIPOS>ATOM
      1 C4          -0.8690    -5.2660    -1.1210 c5         1 I0G      -0.014400
      2 C6          -0.6260    -3.8070    -0.8120 ca         1 I0G      -0.105300
      3 C7          -1.5270    -2.8350    -1.2400 ca         1 I0G      -0.132000
      4 C8          -1.3390    -1.4900    -0.9540 ca         1 I0G       0.107100
      5 C10         -0.2200    -1.1010    -0.2240 ca         1 I0G      -0.192000
      6 C17          3.1250    -7.4210    -0.2290 ca         1 I0G      -0.072000
      7 C21          3.6670    -7.0650     2.4550 ca         1 I0G      -0.196500
      8 C22          2.7770    -6.2250     1.8050 ca         1 I0G      -0.072000
      9 C24         -2.0260    -5.9230     0.8810 c5         1 I0G      -0.079400
     10 C1          -0.5690    -6.3990     1.0340 c5         1 I0G      -0.068400
     11 C2           0.1040    -6.1550    -0.3360 c5         1 I0G      -0.095700
     12 O9          -2.2630    -0.6070    -1.4020 oh         1 I0G      -0.498100
     13 C11          0.6960    -2.0530     0.1900 ca         1 I0G      -0.118000
     14 C12          0.5020    -3.3990    -0.1020 ca         1 I0G       0.105100
     15 O13          1.4500    -4.2640     0.3450 os         1 I0G      -0.320900
     16 C14          1.4930    -5.5340    -0.2810 c6         1 I0G       0.213400
     17 C16          2.4890    -6.3900     0.4530 ca         1 I0G      -0.120300
     18 C18          4.0140    -8.2740     0.4090 ca         1 I0G      -0.196500
     19 C19          4.2910    -8.0980     1.7620 ca         1 I0G       0.143100
     20 O20          5.1460    -8.8890     2.4420 oh         1 I0G      -0.494100
     21 C23         -2.2310    -5.7560    -0.6230 c5         1 I0G      -0.070400
     22 H4          -0.7590    -5.4210    -2.1980 hc         1 I0G       0.062700
     23 H7          -2.4040    -3.1330    -1.8040 ha         1 I0G       0.144000
     24 H10         -0.0500    -0.0570     0.0140 ha         1 I0G       0.132000
     25 H21          3.8830    -6.9180     3.5060 ha         1 I0G       0.139000
     26 H22          2.3120    -5.4290     2.3720 ha         1 I0G       0.137500
     27 H241        -2.1640    -4.9620     1.3820 hc         1 I0G       0.046200
     28 H242        -2.7420    -6.6150     1.3250 hc         1 I0G       0.046200
     29 H11A        -0.0690    -5.8610     1.8400 hc         1 I0G       0.048700
     30 H12         -0.5180    -7.4560     1.2930 hc         1 I0G       0.048700
     31 H2           0.1970    -7.1070    -0.8660 hc         1 I0G       0.058700
     32 HO9         -2.0110     0.2900    -1.1570 ho         1 I0G       0.423000
     33 H11          1.5730    -1.7490     0.7480 ha         1 I0G       0.145000
     34 H14          1.8410    -5.4040    -1.3170 h1         1 I0G       0.048700
     35 H18          4.4940    -9.0670    -0.1520 ha         1 I0G       0.139000
     36 HO20         5.5320    -9.5490     1.8560 ho         1 I0G       0.425000
     37 H231        -2.4460    -6.7220    -1.0870 hc         1 I0G       0.046700
     38 H232        -3.0580    -5.0890    -0.8730 hc         1 I0G       0.046700
     39 H17          2.9280    -7.5690    -1.2850 ha         1 I0G       0.137500
@<TRIPOS>BOND
     1     1     2 1   
     2     1    11 1   
     3     1    21 1   
     4     1    22 1   
     5     2     3 ar  
     6     2    14 ar  
     7     3     4 ar  
     8     3    23 1   
     9     4     5 ar  
    10     4    12 1   
    11     5    13 ar  
    12     5    24 1   
    13     6    17 ar  
    14     6    18 ar  
    15     6    39 1   
    16     7     8 ar  
    17     7    19 ar  
    18     7    25 1   
    19     8    17 ar  
    20     8    26 1   
    21     9    10 1   
    22     9    21 1   
    23     9    27 1   
    24     9    28 1   
    25    10    11 1   
    26    10    29 1   
    27    10    30 1   
    28    11    16 1   
    29    11    31 1   
    30    12    32 1   
    31    13    14 ar  
    32    13    33 1   
    33    14    15 1   
    34    15    16 1   
    35    16    17 1   
    36    16    34 1   
    37    18    19 ar  
    38    18    35 1   
    39    19    20 1   
    40    20    36 1   
    41    21    37 1   
    42    21    38 1   
@<TRIPOS>SUBSTRUCTURE
     1 I0G         1 TEMP              0 ****  ****    0 ROOT
