@<TRIPOS>MOLECULE
I0I
   70    73     1     0     0
SMALL
bcc


@<TRIPOS>ATOM
      1 C10         15.9230    45.3700    -6.5010 ca         1 I0I      -0.116000
      2 C11         16.2900    46.3140    -7.4510 ca         1 I0I      -0.132000
      3 C12         16.5430    45.9220    -8.7580 ca         1 I0I      -0.126000
      4 C13         16.4280    44.5830    -9.1060 ca         1 I0I      -0.132000
      5 C14         16.0650    43.6420    -8.1530 ca         1 I0I      -0.116000
      6 C15         16.3570    41.8170    -5.7420 c3         1 I0I      -0.109100
      7 C16         11.3980    40.4600    -4.8750 ca         1 I0I      -0.074000
      8 C17         10.1430    39.9990    -5.2420 ca         1 I0I      -0.138000
      9 C18          9.3750    40.7170    -6.1430 ca         1 I0I      -0.106000
     10 C19          7.6310    43.1510    -7.0330 ca         1 I0I      -0.095300
     11 C20          7.3950    43.1990    -5.6650 ca         1 I0I      -0.103500
     12 C21          6.1680    43.6290    -5.1780 ca         1 I0I      -0.132500
     13 C22          5.1660    44.0270    -6.0510 ca         1 I0I      -0.119000
     14 C23          5.3960    43.9860    -7.4200 ca         1 I0I      -0.132500
     15 C24          6.6190    43.5440    -7.9050 ca         1 I0I      -0.103500
     16 C25          9.6560    44.9800    -7.8800 c          1 I0I       0.720500
     17 C26          9.8360    46.1120    -8.8470 c6         1 I0I      -0.166400
     18 C01         10.6780    45.8140   -10.0830 c6         1 I0I       0.263200
     19 C02         10.0860    43.4040    -9.7000 c2         1 I0I       0.698800
     20 C03          8.9350    42.6530    -7.6430 c3         1 I0I       0.213300
     21 C04          9.8430    41.9130    -6.6850 ca         1 I0I      -0.104300
     22 C05         11.1150    42.3480    -6.3460 ca         1 I0I      -0.077000
     23 C06         11.8990    41.6240    -5.4470 ca         1 I0I      -0.152600
     24 C07         13.2650    42.0770    -5.0380 c          1 I0I       0.679700
     25 C08         15.4090    43.0120    -5.7890 c3         1 I0I       0.161000
     26 C09         15.8090    44.0250    -6.8380 ca         1 I0I      -0.100300
     27 C27         10.2550    46.7760   -11.1940 c3         1 I0I      -0.094100
     28 C28         12.1930    45.9830    -9.7810 c3         1 I0I      -0.081700
     29 C29         13.0780    45.6650   -10.9860 c3         1 I0I      -0.098100
     30 C30         12.6820    45.1790    -8.5810 c3         1 I0I      -0.098100
     31 N01         10.3460    44.4660   -10.5120 nu         1 I0I      -0.849200
     32 N02          9.5840    43.7120    -8.4190 n          1 I0I      -0.463300
     33 N03         14.0280    42.6000    -6.0140 ns         1 I0I      -0.566900
     34 O01         13.6480    41.9560    -3.8820 o          1 I0I      -0.601100
     35 O02          9.4850    45.1640    -6.6950 o          1 I0I      -0.586500
     36 H06         15.7270    45.6850    -5.4820 ha         1 I0I       0.134500
     37 H07         16.3780    47.3550    -7.1690 ha         1 I0I       0.133000
     38 H08         16.8290    46.6550    -9.5020 ha         1 I0I       0.131000
     39 H09         16.6220    44.2690   -10.1240 ha         1 I0I       0.133000
     40 H10         15.9840    42.6020    -8.4470 ha         1 I0I       0.134500
     41 H13         16.0910    41.1460    -4.9260 hc         1 I0I       0.045367
     42 H11         16.3310    41.2450    -6.6690 hc         1 I0I       0.045367
     43 H12         17.3810    42.1550    -5.5790 hc         1 I0I       0.045367
     44 H14         11.9950    39.9040    -4.1650 ha         1 I0I       0.151000
     45 H15          9.7620    39.0760    -4.8240 ha         1 I0I       0.138000
     46 H16          8.3940    40.3470    -6.4200 ha         1 I0I       0.136000
     47 H17          8.1670    42.9070    -4.9670 ha         1 I0I       0.138000
     48 H18          6.0000    43.6610    -4.1090 ha         1 I0I       0.131500
     49 H19          4.2110    44.3650    -5.6690 ha         1 I0I       0.130000
     50 H20          4.6210    44.2880    -8.1120 ha         1 I0I       0.131500
     51 H21          6.7850    43.5040    -8.9750 ha         1 I0I       0.138000
     52 H22         10.2290    46.9750    -8.3090 hc         1 I0I       0.083700
     53 H23          8.8180    46.3710    -9.1610 hc         1 I0I       0.083700
     54 H02          8.6080    41.9180    -8.3830 h1         1 I0I       0.063700
     55 H03         11.5020    43.2650    -6.7690 ha         1 I0I       0.142000
     56 H05         15.4380    43.5090    -4.8180 h1         1 I0I       0.078700
     57 H27         10.5070    47.8030   -10.9260 hc         1 I0I       0.047033
     58 H26         10.7450    46.5480   -12.1400 hc         1 I0I       0.047033
     59 H28          9.1790    46.7200   -11.3570 hc         1 I0I       0.047033
     60 H29         12.3250    47.0440    -9.5420 hc         1 I0I       0.053700
     61 H32         14.1200    45.8760   -10.7440 hc         1 I0I       0.040200
     62 H30         13.0240    44.6080   -11.2580 hc         1 I0I       0.040200
     63 H31         12.8270    46.2530   -11.8670 hc         1 I0I       0.040200
     64 H33         12.1870    45.4550    -7.6490 hc         1 I0I       0.040200
     65 H34         12.5710    44.1030    -8.7330 hc         1 I0I       0.040200
     66 H35         13.7450    45.3610    -8.4280 hc         1 I0I       0.040200
     67 H01         10.7710    44.1720   -11.3800 hn         1 I0I       0.440800
     68 H04         13.7090    42.5320    -6.9690 hn         1 I0I       0.316500
     69 H25         10.0300    41.4890    -9.5050 hn         1 I0I       0.404400
     70 N04         10.2650    42.2250   -10.1550 n2         1 I0I      -0.904100
@<TRIPOS>BOND
     1     1     2 ar  
     2     1    26 ar  
     3     1    36 1   
     4     2     3 ar  
     5     2    37 1   
     6     3     4 ar  
     7     3    38 1   
     8     4     5 ar  
     9     4    39 1   
    10     5    26 ar  
    11     5    40 1   
    12     6    25 1   
    13     6    41 1   
    14     6    42 1   
    15     6    43 1   
    16     7     8 ar  
    17     7    23 ar  
    18     7    44 1   
    19     8     9 ar  
    20     8    45 1   
    21     9    21 ar  
    22     9    46 1   
    23    10    11 ar  
    24    10    15 ar  
    25    10    20 1   
    26    11    12 ar  
    27    11    47 1   
    28    12    13 ar  
    29    12    48 1   
    30    13    14 ar  
    31    13    49 1   
    32    14    15 ar  
    33    14    50 1   
    34    15    51 1   
    35    16    17 1   
    36    16    32 1   
    37    16    35 2   
    38    17    18 1   
    39    17    52 1   
    40    17    53 1   
    41    18    27 1   
    42    18    28 1   
    43    18    31 1   
    44    19    31 1   
    45    19    32 1   
    46    19    70 2   
    47    20    21 1   
    48    20    32 1   
    49    20    54 1   
    50    21    22 ar  
    51    22    23 ar  
    52    22    55 1   
    53    23    24 1   
    54    24    33 1   
    55    24    34 2   
    56    25    26 1   
    57    25    33 1   
    58    25    56 1   
    59    27    57 1   
    60    27    58 1   
    61    27    59 1   
    62    28    29 1   
    63    28    30 1   
    64    28    60 1   
    65    29    61 1   
    66    29    62 1   
    67    29    63 1   
    68    30    64 1   
    69    30    65 1   
    70    30    66 1   
    71    31    67 1   
    72    33    68 1   
    73    69    70 1   
@<TRIPOS>SUBSTRUCTURE
     1 I0I         1 TEMP              0 ****  ****    0 ROOT
