@<TRIPOS>MOLECULE
I0I
   70    73     1     0     0
SMALL
No Charge or Current Charge


@<TRIPOS>ATOM
      1 C10         16.4090    45.1000    -6.7940 ca         1 I0I      -0.098000
      2 C11         16.7810    45.9800    -7.8250 ca         1 I0I      -0.114000
      3 C12         16.6430    45.5910    -9.1670 ca         1 I0I      -0.108000
      4 C13         16.1260    44.3230    -9.4790 ca         1 I0I      -0.114000
      5 C14         15.7520    43.4420    -8.4490 ca         1 I0I      -0.098000
      6 C15         16.3460    41.5560    -6.0460 c3         1 I0I      -0.109100
      7 C16         11.2660    40.8140    -4.3100 ca         1 I0I      -0.056000
      8 C17          9.9230    40.4760    -4.5260 ca         1 I0I      -0.120000
      9 C18          9.2160    41.0480    -5.5920 ca         1 I0I      -0.088000
     10 C19          7.5520    42.9140    -7.2630 ca         1 I0I      -0.095300
     11 C20          7.1540    43.3750    -5.9870 ca         1 I0I      -0.085500
     12 C21          5.8040    43.6560    -5.7180 ca         1 I0I      -0.114500
     13 C22          4.8350    43.4830    -6.7190 ca         1 I0I      -0.101000
     14 C23          5.2190    43.0320    -7.9920 ca         1 I0I      -0.114500
     15 C24          6.5700    42.7510    -8.2620 ca         1 I0I      -0.085500
     16 C25          9.6600    45.0080    -7.7100 c          1 I0I       0.578000
     17 C26          9.7690    46.2370    -8.5970 c6         1 I0I      -0.166400
     18 C01         10.6670    46.0330    -9.8250 c6         1 I0I       0.263200
     19 C02         10.2690    43.5720    -9.5610 c2         1 I0I       0.698800
     20 C03          9.0210    42.6050    -7.6020 c3         1 I0I       0.213300
     21 C04          9.8310    41.9930    -6.4410 ca         1 I0I      -0.104300
     22 C05         11.1970    42.3020    -6.2350 ca         1 I0I      -0.059000
     23 C06         11.9280    41.7140    -5.1730 ca         1 I0I      -0.152600
     24 C07         13.3940    42.0070    -4.9360 c          1 I0I       0.612700
     25 C08         15.5240    42.8620    -5.9700 c3         1 I0I       0.161000
     26 C09         15.8960    43.8220    -7.0970 ca         1 I0I      -0.100300
     27 C27         10.1970    47.0030   -10.9550 c3         1 I0I      -0.094100
     28 C28         12.2000    46.3030    -9.5130 c3         1 I0I      -0.081700
     29 C29         13.1560    46.1280   -10.7270 c3         1 I0I      -0.098100
     30 C30         12.7800    45.5200    -8.3050 c3         1 I0I      -0.098100
     31 N01         10.4550    44.6770   -10.3080 nu         1 I0I      -0.904400
     32 N02          9.6550    43.7440    -8.3200 n          1 I0I      -0.396300
     33 N03         14.0860    42.5920    -5.9750 ns         1 I0I      -0.499900
     34 O01         13.9410    41.7410    -3.8750 o          1 I0I      -0.601100
     35 O02          9.5590    45.1510    -6.4990 o          1 I0I      -0.511000
     36 H06         16.5260    45.4120    -5.7580 ha         1 I0I       0.116500
     37 H07         17.1780    46.9640    -7.5820 ha         1 I0I       0.115000
     38 H08         16.9320    46.2720    -9.9640 ha         1 I0I       0.113000
     39 H09         16.0130    44.0220   -10.5180 ha         1 I0I       0.115000
     40 H10         15.3550    42.4620    -8.7050 ha         1 I0I       0.116500
     41 H13         16.1610    40.9220    -5.1710 hc         1 I0I       0.045367
     42 H11         16.0920    40.9790    -6.9430 hc         1 I0I       0.045367
     43 H12         17.4180    41.7830    -6.0750 hc         1 I0I       0.045367
     44 H14         11.8000    40.3510    -3.4820 ha         1 I0I       0.133000
     45 H15          9.4310    39.7630    -3.8690 ha         1 I0I       0.120000
     46 H16          8.1790    40.7580    -5.7500 ha         1 I0I       0.118000
     47 H17          7.8910    43.5200    -5.2000 ha         1 I0I       0.120000
     48 H18          5.5090    44.0090    -4.7320 ha         1 I0I       0.113500
     49 H19          3.7900    43.7020    -6.5110 ha         1 I0I       0.112000
     50 H20          4.4710    42.9010    -8.7710 ha         1 I0I       0.113500
     51 H21          6.8540    42.4070    -9.2550 ha         1 I0I       0.120000
     52 H22         10.0210    47.1280    -8.0080 hc         1 I0I       0.083700
     53 H23          8.7450    46.3730    -8.9660 hc         1 I0I       0.083700
     54 H02          8.9490    41.7820    -8.3240 h1         1 I0I       0.063700
     55 H03         11.6860    43.0090    -6.8970 ha         1 I0I       0.124000
     56 H05         15.7660    43.3470    -5.0130 h1         1 I0I       0.078700
     57 H27         10.3780    48.0500   -10.6820 hc         1 I0I       0.047033
     58 H26         10.7040    46.8130   -11.9070 hc         1 I0I       0.047033
     59 H28          9.1240    46.8990   -11.1550 hc         1 I0I       0.047033
     60 H29         12.2780    47.3610    -9.2290 hc         1 I0I       0.053700
     61 H32         14.1860    46.3650   -10.4400 hc         1 I0I       0.040200
     62 H30         13.1390    45.0970   -11.1000 hc         1 I0I       0.040200
     63 H31         12.8990    46.8020   -11.5510 hc         1 I0I       0.040200
     64 H33         12.2270    45.7240    -7.3820 hc         1 I0I       0.040200
     65 H34         12.7720    44.4410    -8.4940 hc         1 I0I       0.040200
     66 H35         13.8170    45.8190    -8.1200 hc         1 I0I       0.040200
     67 H01         10.8750    44.4350   -11.1970 hn         1 I0I       0.496000
     68 H04         13.5720    42.7750    -6.8250 hn         1 I0I       0.316500
     69 H25         10.4480    41.7300    -9.4070 hn         1 I0I       0.404400
     70 N04         10.6360    42.4820   -10.0780 n2         1 I0I      -0.904100
@<TRIPOS>BOND
     1     1     2 ar  
     2     1    26 ar  
     3     1    36 1   
     4     2     3 ar  
     5     2    37 1   
     6     3     4 ar  
     7     3    38 1   
     8     4     5 ar  
     9     4    39 1   
    10     5    26 ar  
    11     5    40 1   
    12     6    25 1   
    13     6    41 1   
    14     6    42 1   
    15     6    43 1   
    16     7     8 ar  
    17     7    23 ar  
    18     7    44 1   
    19     8     9 ar  
    20     8    45 1   
    21     9    21 ar  
    22     9    46 1   
    23    10    11 ar  
    24    10    15 ar  
    25    10    20 1   
    26    11    12 ar  
    27    11    47 1   
    28    12    13 ar  
    29    12    48 1   
    30    13    14 ar  
    31    13    49 1   
    32    14    15 ar  
    33    14    50 1   
    34    15    51 1   
    35    16    17 1   
    36    16    32 1   
    37    16    35 2   
    38    17    18 1   
    39    17    52 1   
    40    17    53 1   
    41    18    27 1   
    42    18    28 1   
    43    18    31 1   
    44    19    31 1   
    45    19    32 1   
    46    19    70 2   
    47    20    21 1   
    48    20    32 1   
    49    20    54 1   
    50    21    22 ar  
    51    22    23 ar  
    52    22    55 1   
    53    23    24 1   
    54    24    33 1   
    55    24    34 2   
    56    25    26 1   
    57    25    33 1   
    58    25    56 1   
    59    27    57 1   
    60    27    58 1   
    61    27    59 1   
    62    28    29 1   
    63    28    30 1   
    64    28    60 1   
    65    29    61 1   
    66    29    62 1   
    67    29    63 1   
    68    30    64 1   
    69    30    65 1   
    70    30    66 1   
    71    31    67 1   
    72    33    68 1   
    73    69    70 1   
@<TRIPOS>SUBSTRUCTURE
     1 I0I         1 TEMP              0 ****  ****    0 ROOT
