@<TRIPOS>MOLECULE
I0J
   58    61     1     0     0
SMALL
No Charge or Current Charge


@<TRIPOS>ATOM
      1 C1           8.2960     7.4510    42.6800 c5         1 I0J       0.153600
      2 C10         12.7750     7.8330    42.4890 cc         1 I0J       0.714800
      3 C13         14.3460     8.1080    44.1040 ca         1 I0J       0.240400
      4 C14         15.2860     8.9310    44.7480 ca         1 I0J      -0.126000
      5 C15         14.1680     6.7930    44.5580 ca         1 I0J      -0.242600
      6 C16         14.9240     6.3090    45.6470 ca         1 I0J      -0.027000
      7 C17         15.8590     7.1420    46.2810 ca         1 I0J      -0.154000
      8 C18         16.0480     8.4600    45.8330 ca         1 I0J      -0.029300
      9 C19         17.0550     9.3710    46.5210 c3         1 I0J      -0.038100
     10 C20         16.4140    10.1860    47.6630 c3         1 I0J      -0.074400
     11 C21         17.4160    11.1250    48.3750 c3         1 I0J      -0.075400
     12 C22         16.8270    11.8940    49.5820 c3         1 I0J      -0.071400
     13 C23         15.7240    12.9140    49.2190 c3         1 I0J      -0.032100
     14 C24         15.2640    13.7110    50.4320 ca         1 I0J      -0.078300
     15 C25         14.2610    13.1980    51.2790 ca         1 I0J      -0.108000
     16 C26         13.8380    13.9310    52.4020 ca         1 I0J      -0.109500
     17 C27         14.4160    15.1800    52.6850 ca         1 I0J      -0.113000
     18 C28         15.4170    15.6960    51.8450 ca         1 I0J      -0.109500
     19 C29         15.8400    14.9630    50.7220 ca         1 I0J      -0.108000
     20 C3           8.2130     6.4250    43.8530 c5         1 I0J      -0.113400
     21 C4           9.6460     5.8270    43.8960 c5         1 I0J      -0.103400
     22 C5          10.0160     5.9100    42.3980 c5         1 I0J       0.148300
     23 C6          11.5110     5.6930    42.0420 c3         1 I0J       0.073000
     24 C8          13.1770     5.9290    43.8730 c          1 I0J       0.586600
     25 N11         12.0860     8.4150    41.5230 nv         1 I0J      -1.023200
     26 N12         13.6290     8.6590    43.0380 nd         1 I0J      -0.722100
     27 N7          12.4960     6.5190    42.8130 n          1 I0J      -0.352300
     28 O2           9.5910     7.2450    42.0710 os         1 I0J      -0.494000
     29 H31          8.2250     8.4910    43.0280 h1         1 I0J       0.047700
     30 H30          7.5090     7.2750    41.9340 h1         1 I0J       0.047700
     31 H41         15.4230     9.9520    44.4010 ha         1 I0J       0.128000
     32 H42         14.7910     5.2900    46.0060 ha         1 I0J       0.130000
     33 H43         16.4360     6.7620    47.1210 ha         1 I0J       0.116000
     34 H45         17.8860     8.7770    46.9230 hc         1 I0J       0.049200
     35 H44         17.4980    10.0600    45.7910 hc         1 I0J       0.049200
     36 H47         15.5860    10.7750    47.2500 hc         1 I0J       0.044200
     37 H46         15.9810     9.4950    48.3970 hc         1 I0J       0.044200
     38 H49         18.2660    10.5280    48.7290 hc         1 I0J       0.038200
     39 H48         17.8190    11.8440    47.6510 hc         1 I0J       0.038200
     40 H50         17.6450    12.4280    50.0820 hc         1 I0J       0.042700
     41 H51         16.4320    11.1760    50.3110 hc         1 I0J       0.042700
     42 H52         14.8680    12.3890    48.7780 hc         1 I0J       0.046700
     43 H53         16.1010    13.5910    48.4430 hc         1 I0J       0.046700
     44 H54         13.8110    12.2310    51.0680 ha         1 I0J       0.109500
     45 H55         13.0640    13.5300    53.0520 ha         1 I0J       0.111000
     46 H56         14.0890    15.7470    53.5540 ha         1 I0J       0.111000
     47 H57         15.8660    16.6620    52.0630 ha         1 I0J       0.111000
     48 H58         16.6180    15.3680    50.0780 ha         1 I0J       0.109500
     49 H32          7.4650     5.6530    43.6370 hc         1 I0J       0.059200
     50 H33          7.9290     6.8960    44.8000 hc         1 I0J       0.059200
     51 H35          9.6700     4.8020    44.2840 hc         1 I0J       0.067700
     52 H34         10.3140     6.4360    44.5160 hc         1 I0J       0.067700
     53 H36          9.4150     5.2010    41.8100 h1         1 I0J       0.060700
     54 H38         11.7350     4.6270    42.1730 h1         1 I0J       0.081700
     55 H37         11.6420     5.8880    40.9700 h1         1 I0J       0.081700
     56 H40         12.2130     9.4170    41.5260 hn         1 I0J       0.497000
     57 H39         11.1140     8.1130    41.4920 hn         1 I0J       0.497000
     58 O9          12.9780     4.7730    44.2280 o          1 I0J      -0.549000
@<TRIPOS>BOND
     1     1    20 1   
     2     1    28 1   
     3     1    29 1   
     4     1    30 1   
     5     2    25 1   
     6     2    26 2   
     7     2    27 1   
     8     3     4 ar  
     9     3     5 ar  
    10     3    26 1   
    11     4     8 ar  
    12     4    31 1   
    13     5     6 ar  
    14     5    24 1   
    15     6     7 ar  
    16     6    32 1   
    17     7     8 ar  
    18     7    33 1   
    19     8     9 1   
    20     9    10 1   
    21     9    34 1   
    22     9    35 1   
    23    10    11 1   
    24    10    36 1   
    25    10    37 1   
    26    11    12 1   
    27    11    38 1   
    28    11    39 1   
    29    12    13 1   
    30    12    40 1   
    31    12    41 1   
    32    13    14 1   
    33    13    42 1   
    34    13    43 1   
    35    14    15 ar  
    36    14    19 ar  
    37    15    16 ar  
    38    15    44 1   
    39    16    17 ar  
    40    16    45 1   
    41    17    18 ar  
    42    17    46 1   
    43    18    19 ar  
    44    18    47 1   
    45    19    48 1   
    46    20    21 1   
    47    20    49 1   
    48    20    50 1   
    49    21    22 1   
    50    21    51 1   
    51    21    52 1   
    52    22    23 1   
    53    22    28 1   
    54    22    53 1   
    55    23    27 1   
    56    23    54 1   
    57    23    55 1   
    58    24    27 1   
    59    24    58 2   
    60    25    56 1   
    61    25    57 1   
@<TRIPOS>SUBSTRUCTURE
     1 I0J         1 TEMP              0 ****  ****    0 ROOT
