@<TRIPOS>MOLECULE
I0J
   58    61     1     0     0
SMALL
bcc


@<TRIPOS>ATOM
      1 C1           8.7590     7.5910    42.4970 c5         1 I0J       0.130400
      2 C10         12.7700     7.5470    42.3420 cc         1 I0J       0.714800
      3 C13         14.2640     8.0740    43.9910 ca         1 I0J       0.240400
      4 C14         15.2070     8.9710    44.5230 ca         1 I0J      -0.144000
      5 C15         13.9960     6.8910    44.6900 ca         1 I0J      -0.242600
      6 C16         14.6680     6.6120    45.8870 ca         1 I0J      -0.045000
      7 C17         15.5890     7.5000    46.3850 ca         1 I0J      -0.172000
      8 C18         15.8660     8.7010    45.7040 ca         1 I0J      -0.029300
      9 C19         16.8400     9.6810    46.2920 c3         1 I0J      -0.038100
     10 C20         16.2740    10.3900    47.5250 c3         1 I0J      -0.074400
     11 C21         17.2690    11.3760    48.1290 c3         1 I0J      -0.075400
     12 C22         16.8050    12.0140    49.4340 c3         1 I0J      -0.071400
     13 C23         15.5770    12.9160    49.2850 c3         1 I0J      -0.032100
     14 C24         15.2330    13.6100    50.5730 ca         1 I0J      -0.078300
     15 C25         14.2830    13.0830    51.4450 ca         1 I0J      -0.126000
     16 C26         14.0010    13.7040    52.6560 ca         1 I0J      -0.127500
     17 C27         14.6690    14.8670    53.0150 ca         1 I0J      -0.131000
     18 C28         15.6200    15.4030    52.1550 ca         1 I0J      -0.127500
     19 C29         15.8970    14.7780    50.9470 ca         1 I0J      -0.126000
     20 C3           8.3510     6.7680    43.7070 c5         1 I0J      -0.113400
     21 C4           9.6070     5.9380    43.9390 c5         1 I0J      -0.103400
     22 C5          10.0530     5.6370    42.5130 c5         1 I0J       0.125100
     23 C6          11.5410     5.3930    42.2970 c3         1 I0J       0.073000
     24 C8          13.0250     5.9590    44.1490 c          1 I0J       0.729100
     25 N11         12.1900     7.8230    41.1540 nv         1 I0J      -0.912800
     26 N12         13.6330     8.3870    42.8250 nd         1 I0J      -0.722100
     27 N7          12.4430     6.3470    42.9420 n          1 I0J      -0.419300
     28 O2           9.5980     6.7370    41.7240 os         1 I0J      -0.447600
     29 H31          9.3150     8.4850    42.8020 h1         1 I0J       0.047700
     30 H30          7.9150     7.9090    41.8830 h1         1 I0J       0.047700
     31 H41         15.4070     9.8880    43.9820 ha         1 I0J       0.146000
     32 H42         14.4590     5.6910    46.4140 ha         1 I0J       0.148000
     33 H43         16.1090     7.2760    47.3090 ha         1 I0J       0.134000
     34 H45         17.7600     9.1590    46.5720 hc         1 I0J       0.049200
     35 H44         17.1170    10.4250    45.5410 hc         1 I0J       0.049200
     36 H47         15.3490    10.9010    47.2450 hc         1 I0J       0.044200
     37 H46         16.0000     9.6450    48.2780 hc         1 I0J       0.044200
     38 H49         18.2130    10.8550    48.3130 hc         1 I0J       0.038200
     39 H48         17.4910    12.1620    47.4000 hc         1 I0J       0.038200
     40 H50         17.6250    12.6060    49.8490 hc         1 I0J       0.042700
     41 H51         16.5900    11.2330    50.1720 hc         1 I0J       0.042700
     42 H52         14.7200    12.3310    48.9440 hc         1 I0J       0.046700
     43 H53         15.7760    13.6600    48.5070 hc         1 I0J       0.046700
     44 H54         13.7550    12.1770    51.1720 ha         1 I0J       0.127500
     45 H55         13.2570    13.2800    53.3180 ha         1 I0J       0.129000
     46 H56         14.4490    15.3540    53.9570 ha         1 I0J       0.129000
     47 H57         16.1450    16.3110    52.4250 ha         1 I0J       0.129000
     48 H58         16.6390    15.2050    50.2820 ha         1 I0J       0.127500
     49 H32          7.4970     6.1280    43.4730 hc         1 I0J       0.059200
     50 H33          8.0820     7.3890    44.5610 hc         1 I0J       0.059200
     51 H35          9.4370     5.0280    44.5130 hc         1 I0J       0.067700
     52 H34         10.3480     6.5390    44.4710 hc         1 I0J       0.067700
     53 H36          9.5500     4.7290    42.1570 h1         1 I0J       0.060700
     54 H38         11.7770     4.4080    42.6910 h1         1 I0J       0.081700
     55 H37         11.7660     5.3620    41.2300 h1         1 I0J       0.081700
     56 H40         12.3890     8.7490    40.8090 hn         1 I0J       0.441800
     57 H39         11.2390     7.5120    40.9950 hn         1 I0J       0.441800
     58 O9          12.7230     4.9020    44.6750 o          1 I0J      -0.624500
@<TRIPOS>BOND
     1     1    20 1   
     2     1    28 1   
     3     1    29 1   
     4     1    30 1   
     5     2    25 1   
     6     2    26 2   
     7     2    27 1   
     8     3     4 ar  
     9     3     5 ar  
    10     3    26 1   
    11     4     8 ar  
    12     4    31 1   
    13     5     6 ar  
    14     5    24 1   
    15     6     7 ar  
    16     6    32 1   
    17     7     8 ar  
    18     7    33 1   
    19     8     9 1   
    20     9    10 1   
    21     9    34 1   
    22     9    35 1   
    23    10    11 1   
    24    10    36 1   
    25    10    37 1   
    26    11    12 1   
    27    11    38 1   
    28    11    39 1   
    29    12    13 1   
    30    12    40 1   
    31    12    41 1   
    32    13    14 1   
    33    13    42 1   
    34    13    43 1   
    35    14    15 ar  
    36    14    19 ar  
    37    15    16 ar  
    38    15    44 1   
    39    16    17 ar  
    40    16    45 1   
    41    17    18 ar  
    42    17    46 1   
    43    18    19 ar  
    44    18    47 1   
    45    19    48 1   
    46    20    21 1   
    47    20    49 1   
    48    20    50 1   
    49    21    22 1   
    50    21    51 1   
    51    21    52 1   
    52    22    23 1   
    53    22    28 1   
    54    22    53 1   
    55    23    27 1   
    56    23    54 1   
    57    23    55 1   
    58    24    27 1   
    59    24    58 2   
    60    25    56 1   
    61    25    57 1   
@<TRIPOS>SUBSTRUCTURE
     1 I0J         1 TEMP              0 ****  ****    0 ROOT
