@<TRIPOS>MOLECULE
I0K
   31    32     1     0     0
SMALL
bcc


@<TRIPOS>ATOM
      1 C4           2.0820     8.2400   -40.3480 ca         1 I0K      -0.131300
      2 C14          7.8510     7.9230   -38.5760 ca         1 I0K      -0.193500
      3 C5           0.8910     7.7590   -39.8160 ca         1 I0K      -0.079000
      4 C6          -0.2460     7.6160   -40.5980 ca         1 I0K      -0.191500
      5 C11          5.4630     7.0910   -37.4460 ca         1 I0K      -0.074500
      6 C7          -0.2090     7.9550   -41.9480 ca         1 I0K       0.144100
      7 C8           0.9770     8.4410   -42.4970 ca         1 I0K      -0.191500
      8 C9           2.1010     8.5780   -41.7000 ca         1 I0K      -0.079000
      9 C10          5.5230     7.3110   -38.8170 ca         1 I0K      -0.129300
     10 C12          6.5760     7.2750   -36.6420 ca         1 I0K      -0.193500
     11 C13          7.7800     7.6970   -37.2030 ca         1 I0K       0.148100
     12 N1           3.0630     4.9210   -39.2200 n1         1 I0K      -0.376800
     13 C3           3.3160     8.3560   -39.5020 c3         1 I0K      -0.014100
     14 C1           3.6130     5.9080   -39.4360 c1         1 I0K       0.220700
     15 C2           4.2960     7.1740   -39.6910 c3         1 I0K       0.054700
     16 O1          -1.2780     7.8390   -42.7610 oh         1 I0K      -0.494100
     17 O2           8.8940     7.8970   -36.4740 oh         1 I0K      -0.492100
     18 C15          6.7310     7.7280   -39.3680 ca         1 I0K      -0.074500
     19 H12          8.7830     8.2480   -39.0200 ha         1 I0K       0.141500
     20 H4           0.8410     7.4930   -38.7670 ha         1 I0K       0.130500
     21 H5          -1.1630     7.2450   -40.1530 ha         1 I0K       0.140000
     22 H9           4.5370     6.7640   -36.9840 ha         1 I0K       0.135000
     23 H7           1.0130     8.7140   -43.5440 ha         1 I0K       0.140000
     24 H8           3.0140     8.9620   -42.1430 ha         1 I0K       0.130500
     25 H10          6.5050     7.0900   -35.5750 ha         1 I0K       0.141500
     26 H3           3.8730     9.2610   -39.7500 hc         1 I0K       0.057200
     27 H2           3.0500     8.4240   -38.4450 hc         1 I0K       0.057200
     28 H1           4.6070     7.1500   -40.7400 hc         1 I0K       0.079700
     29 H6          -2.0320     7.4800   -42.2790 ho         1 I0K       0.427000
     30 H11          8.7230     7.7290   -35.5400 ho         1 I0K       0.428000
     31 H13          6.8020     7.9080   -40.4340 ha         1 I0K       0.135000
@<TRIPOS>BOND
     1     1     3 ar  
     2     1     8 ar  
     3     1    13 1   
     4     2    11 ar  
     5     2    18 ar  
     6     2    19 1   
     7     3     4 ar  
     8     3    20 1   
     9     4     6 ar  
    10     4    21 1   
    11     5     9 ar  
    12     5    10 ar  
    13     5    22 1   
    14     6     7 ar  
    15     6    16 1   
    16     7     8 ar  
    17     7    23 1   
    18     8    24 1   
    19     9    15 1   
    20     9    18 ar  
    21    10    11 ar  
    22    10    25 1   
    23    11    17 1   
    24    12    14 3   
    25    13    15 1   
    26    13    26 1   
    27    13    27 1   
    28    14    15 1   
    29    15    28 1   
    30    16    29 1   
    31    17    30 1   
    32    18    31 1   
@<TRIPOS>SUBSTRUCTURE
     1 I0K         1 TEMP              0 ****  ****    0 ROOT
