@<TRIPOS>MOLECULE
I0K
   31    32     1     0     0
SMALL
No Charge or Current Charge


@<TRIPOS>ATOM
      1 C4           1.9870     8.1640   -40.2760 ca         1 I0K      -0.131300
      2 C14          7.9390     7.7050   -38.6770 ca         1 I0K      -0.175500
      3 C5           0.7660     7.5980   -39.8570 ca         1 I0K      -0.061000
      4 C6          -0.3280     7.5430   -40.7390 ca         1 I0K      -0.173500
      5 C11          5.4750     7.3610   -37.3790 ca         1 I0K      -0.056500
      6 C7          -0.2070     8.0530   -42.0410 ca         1 I0K       0.144100
      7 C8           1.0050     8.6180   -42.4630 ca         1 I0K      -0.173500
      8 C9           2.1000     8.6760   -41.5840 ca         1 I0K      -0.061000
      9 C10          5.5250     7.3460   -38.7910 ca         1 I0K      -0.129300
     10 C12          6.6480     7.5480   -36.6270 ca         1 I0K      -0.175500
     11 C13          7.8790     7.7210   -37.2770 ca         1 I0K       0.148100
     12 N1           3.3440     4.6890   -39.2730 n1         1 I0K      -0.466000
     13 C3           3.1800     8.2220   -39.3240 c3         1 I0K      -0.014100
     14 C1           3.7340     5.7760   -39.4380 c1         1 I0K       0.309900
     15 C2           4.2530     7.1420   -39.6240 c3         1 I0K       0.054700
     16 O1          -1.2630     8.0030   -42.9010 oh         1 I0K      -0.533100
     17 O2           9.0200     7.9030   -36.5550 oh         1 I0K      -0.531100
     18 C15          6.7690     7.5180   -39.4330 ca         1 I0K      -0.056500
     19 H12          8.8940     7.8380   -39.1800 ha         1 I0K       0.123500
     20 H4           0.6640     7.1980   -38.8500 ha         1 I0K       0.112500
     21 H5          -1.2640     7.1020   -40.4030 ha         1 I0K       0.122000
     22 H9           4.5290     7.2220   -36.8600 ha         1 I0K       0.117000
     23 H7           1.0970     9.0140   -43.4710 ha         1 I0K       0.122000
     24 H8           3.0370     9.1170   -41.9200 ha         1 I0K       0.112500
     25 H10          6.5910     7.5560   -35.5410 ha         1 I0K       0.123500
     26 H3           3.6510     9.2100   -39.3960 hc         1 I0K       0.057200
     27 H2           2.8400     8.1300   -38.2850 hc         1 I0K       0.057200
     28 H1           4.5070     7.2290   -40.6870 hc         1 I0K       0.079700
     29 H6          -2.0180     7.5790   -42.4400 ho         1 I0K       0.466000
     30 H11          8.7900     7.8850   -35.6020 ho         1 I0K       0.467000
     31 H13          6.8340     7.5090   -40.5200 ha         1 I0K       0.117000
@<TRIPOS>BOND
     1     1     3 ar  
     2     1     8 ar  
     3     1    13 1   
     4     2    11 ar  
     5     2    18 ar  
     6     2    19 1   
     7     3     4 ar  
     8     3    20 1   
     9     4     6 ar  
    10     4    21 1   
    11     5     9 ar  
    12     5    10 ar  
    13     5    22 1   
    14     6     7 ar  
    15     6    16 1   
    16     7     8 ar  
    17     7    23 1   
    18     8    24 1   
    19     9    15 1   
    20     9    18 ar  
    21    10    11 ar  
    22    10    25 1   
    23    11    17 1   
    24    12    14 3   
    25    13    15 1   
    26    13    26 1   
    27    13    27 1   
    28    14    15 1   
    29    15    28 1   
    30    16    29 1   
    31    17    30 1   
    32    18    31 1   
@<TRIPOS>SUBSTRUCTURE
     1 I0K         1 TEMP              0 ****  ****    0 ROOT
