@<TRIPOS>MOLECULE
I0M
   70    74     1     0     0
SMALL
No Charge or Current Charge


@<TRIPOS>ATOM
      1 N1          48.7340   -32.9380    -4.2850 nb         1 I0M      -0.740000
      2 C4          49.7380   -33.0750    -1.6550 ca         1 I0M      -0.079300
      3 C5          48.4350   -32.6210    -1.9160 ca         1 I0M      -0.180000
      4 C6          47.9570   -32.5580    -3.2490 cp         1 I0M       0.474500
      5 C7          46.5680   -32.0900    -3.5960 cp         1 I0M      -0.151500
      6 C8          45.8180   -31.2560    -2.7200 ca         1 I0M      -0.073000
      7 C10         43.9390   -31.2080    -4.2700 ca         1 I0M      -0.067000
      8 C15         50.2810   -33.1340    -0.2410 c3         1 I0M       0.146900
      9 C21         49.3780   -34.9380    -8.7540 ca         1 I0M       0.386900
     10 C26         49.3340   -35.6710   -12.5190 c6         1 I0M       0.077600
     11 C28         47.4930   -36.9660   -11.4070 c6         1 I0M       0.077600
     12 C11         44.6570   -32.0250    -5.1550 ca         1 I0M       0.119500
     13 C12         45.9520   -32.4590    -4.8260 ca         1 I0M      -0.073000
     14 C18         50.2940   -34.1610    -6.3310 ca         1 I0M      -0.033900
     15 C19         49.1880   -35.0260    -6.4580 ca         1 I0M       0.168900
     16 C2          49.9840   -33.3870    -4.0450 ca         1 I0M       0.590300
     17 C23         50.9110   -33.7360    -7.5190 ca         1 I0M       0.168900
     18 C25         49.4090   -34.7100   -11.3010 c6         1 I0M       0.207300
     19 C29         47.5510   -36.0170   -10.1790 c6         1 I0M       0.207300
     20 C3          50.5230   -33.4580    -2.7530 ca         1 I0M      -0.145000
     21 C30         47.8400   -37.1940   -13.9320 c3         1 I0M       0.074900
     22 C31         51.1360   -31.7100     1.7570 c5         1 I0M       0.085600
     23 C32         52.4460   -30.8690     1.8560 c5         1 I0M       0.162300
     24 C33         52.5190   -30.1670     0.4690 c5         1 I0M      -0.145400
     25 C34         52.1100   -31.3240    -0.4670 c5         1 I0M       0.106600
     26 C37         55.9640   -32.3850     2.4090 c          1 I0M       0.731000
     27 C9          44.5230   -30.8240    -3.0550 ca         1 I0M       0.119500
     28 N16         50.8410   -31.8030     0.2380 nx         1 I0M      -0.671000
     29 N20         48.7310   -35.4110    -7.6660 nb         1 I0M      -0.231000
     30 N22         50.4540   -34.1200    -8.7280 nb         1 I0M      -0.231000
     31 N24         48.8960   -35.3450   -10.0310 nh         1 I0M      -0.799300
     32 N27         47.9270   -36.2700   -12.7110 nx         1 I0M      -0.662000
     33 O17         50.7870   -33.7600    -5.1020 os         1 I0M      -0.332400
     34 O38         57.1160   -32.0090     2.5870 o          1 I0M      -0.688500
     35 O39         55.6390   -33.5670     2.4090 o          1 I0M      -0.688500
     36 Cl13        43.9330   -32.5100    -6.6830 cl         1 I0M      -0.174000
     37 Cl14        43.6320   -29.7900    -1.9450 cl         1 I0M      -0.174000
     38 H41         47.7930   -32.3340    -1.0900 ha         1 I0M       0.137000
     39 H42         46.2410   -30.9200    -1.7780 ha         1 I0M       0.136000
     40 H43         42.9390   -30.8730    -4.5260 ha         1 I0M       0.158000
     41 H45         49.4820   -33.4360     0.4420 hx         1 I0M       0.109700
     42 H46         51.0720   -33.8860    -0.1680 hx         1 I0M       0.109700
     43 H53         50.0270   -36.5050   -12.3760 hx         1 I0M       0.107700
     44 H52         49.6200   -35.1530   -13.4410 hx         1 I0M       0.107700
     45 H55         46.4810   -37.3620   -11.5450 hx         1 I0M       0.107700
     46 H56         48.1650   -37.8160   -11.2510 hx         1 I0M       0.107700
     47 H44         46.4770   -33.0950    -5.5340 ha         1 I0M       0.136000
     48 H48         48.6650   -35.4210    -5.5880 h4         1 I0M       0.050100
     49 H49         51.7780   -33.0770    -7.5050 h4         1 I0M       0.050100
     50 H51         50.4600   -34.4000   -11.2060 h1         1 I0M       0.099200
     51 H50         48.8320   -33.8010   -11.5290 h1         1 I0M       0.099200
     52 H58         46.7600   -35.2590   -10.2780 h1         1 I0M       0.099200
     53 H57         47.2970   -36.6240    -9.2980 h1         1 I0M       0.099200
     54 H40         51.5410   -33.8120    -2.6190 ha         1 I0M       0.159000
     55 H61         46.8180   -37.5650   -14.0440 hx         1 I0M       0.101367
     56 H59         48.1250   -36.6460   -14.8340 hx         1 I0M       0.101367
     57 H60         48.5170   -38.0410   -13.7980 hx         1 I0M       0.101367
     58 H62         50.2900   -31.2400     2.2670 hx         1 I0M       0.108700
     59 H63         51.2680   -32.7100     2.1770 hx         1 I0M       0.108700
     60 H64         52.4530   -30.1780     2.7110 h1         1 I0M       0.070700
     61 H66         53.5060   -29.7620     0.2290 hc         1 I0M       0.091200
     62 H65         51.8090   -29.3340     0.4080 hc         1 I0M       0.091200
     63 H68         51.8970   -31.0220    -1.4970 hx         1 I0M       0.097200
     64 H67         52.8460   -32.1330    -0.4800 hx         1 I0M       0.097200
     65 H69         55.1960   -30.6980     1.3050 h1         1 I0M       0.015200
     66 H70         54.8890   -30.6220     3.0490 h1         1 I0M       0.015200
     67 H47         50.1110   -31.0830     0.0360 hn         1 I0M       0.485000
     68 H54         47.2650   -35.4750   -12.8800 hn         1 I0M       0.499000
     69 O35         53.5410   -31.8150     1.9710 os         1 I0M      -0.407000
     70 C36         54.8780   -31.2860     2.1750 c3         1 I0M      -0.014400
@<TRIPOS>BOND
     1     1     4 ar  
     2     1    16 ar  
     3     2     3 ar  
     4     2     8 1   
     5     2    20 ar  
     6     3     4 ar  
     7     3    38 1   
     8     4     5 1   
     9     5     6 ar  
    10     5    13 ar  
    11     6    27 ar  
    12     6    39 1   
    13     7    12 ar  
    14     7    27 ar  
    15     7    40 1   
    16     8    28 1   
    17     8    41 1   
    18     8    42 1   
    19     9    29 ar  
    20     9    30 ar  
    21     9    31 1   
    22    10    18 1   
    23    10    32 1   
    24    10    43 1   
    25    10    44 1   
    26    11    19 1   
    27    11    32 1   
    28    11    45 1   
    29    11    46 1   
    30    12    13 ar  
    31    12    36 1   
    32    13    47 1   
    33    14    15 ar  
    34    14    17 ar  
    35    14    33 1   
    36    15    29 ar  
    37    15    48 1   
    38    16    20 ar  
    39    16    33 1   
    40    17    30 ar  
    41    17    49 1   
    42    18    31 1   
    43    18    50 1   
    44    18    51 1   
    45    19    31 1   
    46    19    52 1   
    47    19    53 1   
    48    20    54 1   
    49    21    32 1   
    50    21    55 1   
    51    21    56 1   
    52    21    57 1   
    53    22    23 1   
    54    22    28 1   
    55    22    58 1   
    56    22    59 1   
    57    23    24 1   
    58    23    60 1   
    59    23    69 1   
    60    24    25 1   
    61    24    61 1   
    62    24    62 1   
    63    25    28 1   
    64    25    63 1   
    65    25    64 1   
    66    26    34 1   
    67    26    35 1   
    68    26    70 1   
    69    27    37 1   
    70    28    67 1   
    71    32    68 1   
    72    65    70 1   
    73    66    70 1   
    74    69    70 1   
@<TRIPOS>SUBSTRUCTURE
     1 I0M         1 TEMP              0 ****  ****    0 ROOT
