@<TRIPOS>MOLECULE
I0M
   70    74     1     0     0
SMALL
bcc


@<TRIPOS>ATOM
      1 N1          48.8220   -33.5040    -4.2930 nb         1 I0M      -0.740000
      2 C4          49.8270   -33.4170    -1.7310 ca         1 I0M      -0.079300
      3 C5          48.6190   -32.7910    -2.0390 ca         1 I0M      -0.263300
      4 C6          48.1530   -32.8490    -3.3420 cp         1 I0M       0.539800
      5 C7          46.8770   -32.2300    -3.7590 cp         1 I0M      -0.151500
      6 C8          46.2940   -31.2020    -3.0210 ca         1 I0M      -0.091000
      7 C10         44.4420   -31.1100    -4.5770 ca         1 I0M      -0.085000
      8 C15         50.3550   -33.3670    -0.3280 c3         1 I0M       0.175100
      9 C21         48.9710   -35.0540    -8.6330 ca         1 I0M       0.912900
     10 C26         49.0690   -35.1390   -12.2200 c6         1 I0M       0.105800
     11 C28         47.4430   -36.7770   -11.3880 c6         1 I0M       0.105800
     12 C11         45.0420   -32.1280    -5.3010 ca         1 I0M       0.027900
     13 C12         46.2450   -32.6890    -4.9140 ca         1 I0M      -0.091000
     14 C18         50.0300   -34.8660    -6.1970 ca         1 I0M      -0.164500
     15 C19         48.9680   -35.7140    -6.4640 ca         1 I0M       0.497200
     16 C2          49.9430   -34.1020    -3.9920 ca         1 I0M       0.655600
     17 C23         50.5150   -34.1260    -7.2570 ca         1 I0M       0.497200
     18 C25         48.8410   -34.3090   -10.9720 c6         1 I0M       0.207300
     19 C29         47.2420   -35.9240   -10.1520 c6         1 I0M       0.207300
     20 C3          50.5150   -34.0900    -2.7190 ca         1 I0M      -0.228300
     21 C30         48.0490   -36.7540   -13.7750 c3         1 I0M       0.103100
     22 C31         51.3690   -31.8940     1.4110 c5         1 I0M       0.113800
     23 C32         52.5230   -30.8820     1.4390 c5         1 I0M       0.139100
     24 C33         52.7880   -30.5550    -0.0420 c5         1 I0M      -0.145400
     25 C34         52.2360   -31.7450    -0.7970 c5         1 I0M       0.134800
     26 C37         55.6700   -31.2790     3.3690 c          1 I0M       0.941600
     27 C9          45.0900   -30.6620    -3.4380 ca         1 I0M       0.027900
     28 N16         50.9870   -32.0500    -0.0300 nx         1 I0M      -0.700400
     29 N20         48.4390   -35.8090    -7.6670 nb         1 I0M      -0.757000
     30 N22         50.0000   -34.2200    -8.4700 nb         1 I0M      -0.757000
     31 N24         48.4310   -35.1540    -9.8770 nh         1 I0M      -0.799300
     32 N27         47.8510   -35.9360   -12.5530 nx         1 I0M      -0.691400
     33 O17         50.6040   -34.7810    -4.9540 os         1 I0M      -0.332400
     34 O38         56.5500   -30.4980     3.7800 o          1 I0M      -0.793800
     35 O39         55.5690   -32.4980     3.5730 o          1 I0M      -0.793800
     36 CL13        44.2590   -32.7160    -6.7260 cl         1 I0M      -0.082400
     37 CL14        44.3780   -29.3850    -2.5160 cl         1 I0M      -0.082400
     38 H41         48.0520   -32.3010    -1.2580 ha         1 I0M       0.155000
     39 H42         46.7770   -30.8070    -2.1370 ha         1 I0M       0.154000
     40 H43         43.5020   -30.6770    -4.8910 ha         1 I0M       0.176000
     41 H45         49.5490   -33.4990     0.3940 hx         1 I0M       0.109700
     42 H46         51.1100   -34.1310    -0.1490 hx         1 I0M       0.109700
     43 H53         49.8830   -35.8490   -12.0800 hx         1 I0M       0.107700
     44 H52         49.2910   -34.5000   -13.0730 hx         1 I0M       0.107700
     45 H55         46.5210   -37.2890   -11.6590 hx         1 I0M       0.107700
     46 H56         48.2320   -37.5140   -11.2370 hx         1 I0M       0.107700
     47 H44         46.6900   -33.4840    -5.4960 ha         1 I0M       0.154000
     48 H48         48.5360   -36.3320    -5.6830 h4         1 I0M       0.050100
     49 H49         51.3470   -33.4410    -7.1220 h4         1 I0M       0.050100
     50 H51         49.7660   -33.7960   -10.7280 h1         1 I0M       0.099200
     51 H50         48.0790   -33.5450   -11.1680 h1         1 I0M       0.099200
     52 H58         46.3830   -35.2580   -10.2950 h1         1 I0M       0.099200
     53 H57         47.0150   -36.5810    -9.3180 h1         1 I0M       0.099200
     54 H40         51.4500   -34.5970    -2.5180 ha         1 I0M       0.177000
     55 H61         47.1260   -37.2810   -13.9970 hx         1 I0M       0.101367
     56 H59         48.3090   -36.0970   -14.5990 hx         1 I0M       0.101367
     57 H60         48.8510   -37.4640   -13.5930 hx         1 I0M       0.101367
     58 H62         50.4880   -31.5900     1.9700 hx         1 I0M       0.108700
     59 H63         51.7080   -32.8650     1.7690 hx         1 I0M       0.108700
     60 H64         52.2220   -29.9750     1.9770 h1         1 I0M       0.070700
     61 H66         53.8430   -30.3920    -0.2550 hc         1 I0M       0.091200
     62 H65         52.2520   -29.6490    -0.3330 hc         1 I0M       0.091200
     63 H68         51.9920   -31.5550    -1.8390 hx         1 I0M       0.097200
     64 H67         52.8790   -32.6230    -0.7240 hx         1 I0M       0.097200
     65 H69         55.0860   -30.1120     1.6500 h1         1 I0M       0.015200
     66 H70         54.1430   -29.7790     3.0950 h1         1 I0M       0.015200
     67 H47         50.3060   -31.3170    -0.2480 hn         1 I0M       0.429800
     68 H54         47.0910   -35.2790   -12.7470 hn         1 I0M       0.443800
     69 O35         53.6000   -31.4980     2.0840 os         1 I0M      -0.360600
     70 C36         54.5930   -30.5920     2.5070 c3         1 I0M      -0.037600
@<TRIPOS>BOND
     1     1     4 ar  
     2     1    16 ar  
     3     2     3 ar  
     4     2     8 1   
     5     2    20 ar  
     6     3     4 ar  
     7     3    38 1   
     8     4     5 1   
     9     5     6 ar  
    10     5    13 ar  
    11     6    27 ar  
    12     6    39 1   
    13     7    12 ar  
    14     7    27 ar  
    15     7    40 1   
    16     8    28 1   
    17     8    41 1   
    18     8    42 1   
    19     9    29 ar  
    20     9    30 ar  
    21     9    31 1   
    22    10    18 1   
    23    10    32 1   
    24    10    43 1   
    25    10    44 1   
    26    11    19 1   
    27    11    32 1   
    28    11    45 1   
    29    11    46 1   
    30    12    13 ar  
    31    12    36 1   
    32    13    47 1   
    33    14    15 ar  
    34    14    17 ar  
    35    14    33 1   
    36    15    29 ar  
    37    15    48 1   
    38    16    20 ar  
    39    16    33 1   
    40    17    30 ar  
    41    17    49 1   
    42    18    31 1   
    43    18    50 1   
    44    18    51 1   
    45    19    31 1   
    46    19    52 1   
    47    19    53 1   
    48    20    54 1   
    49    21    32 1   
    50    21    55 1   
    51    21    56 1   
    52    21    57 1   
    53    22    23 1   
    54    22    28 1   
    55    22    58 1   
    56    22    59 1   
    57    23    24 1   
    58    23    60 1   
    59    23    69 1   
    60    24    25 1   
    61    24    61 1   
    62    24    62 1   
    63    25    28 1   
    64    25    63 1   
    65    25    64 1   
    66    26    34 1   
    67    26    35 1   
    68    26    70 1   
    69    27    37 1   
    70    28    67 1   
    71    32    68 1   
    72    65    70 1   
    73    66    70 1   
    74    69    70 1   
@<TRIPOS>SUBSTRUCTURE
     1 I0M         1 TEMP              0 ****  ****    0 ROOT
