@<TRIPOS>MOLECULE
I0N
   56    58     1     0     0
SMALL
No Charge or Current Charge


@<TRIPOS>ATOM
      1 C1          -1.4710   -14.2730    16.2080 c3         1 I0N       0.168900
      2 C3          -0.4450   -14.1530    18.4960 c          1 I0N       0.611300
      3 C5           0.9980   -13.9970    17.9370 ce         1 I0N       0.110900
      4 C7           2.0800   -13.8980    18.7730 cf         1 I0N      -0.428200
      5 C8           3.5090   -13.7590    18.3510 c          1 I0N       0.603300
      6 C10          4.6730   -13.6240    19.3970 c6         1 I0N      -0.123000
      7 C11          5.6700   -14.8140    19.1460 c3         1 I0N      -0.024100
      8 C12          5.0930   -16.2000    19.4350 ca         1 I0N      -0.083300
      9 C13          4.4170   -16.9170    18.4270 ca         1 I0N      -0.097500
     10 C14          3.8820   -18.1890    18.6960 ca         1 I0N      -0.105000
     11 C15          4.0260   -18.7550    19.9730 ca         1 I0N       0.121000
     12 C17          4.7080   -18.0530    20.9800 ca         1 I0N      -0.105000
     13 C18          5.2430   -16.7810    20.7110 ca         1 I0N      -0.097500
     14 C19          5.4080   -12.2630    19.1650 c6         1 I0N      -0.065400
     15 C20          4.5600   -11.0360    19.5720 c6         1 I0N       0.160800
     16 C23          3.3720    -9.7920    22.9980 ca         1 I0N      -0.089300
     17 C24          2.0800    -9.8600    23.5590 ca         1 I0N      -0.097000
     18 C25          1.9090    -9.8090    24.9530 ca         1 I0N      -0.115000
     19 C26          3.0280    -9.6900    25.7960 ca         1 I0N      -0.108000
     20 C27          4.3180    -9.6230    25.2430 ca         1 I0N      -0.115000
     21 C28          4.4890    -9.6740    23.8480 ca         1 I0N      -0.097000
     22 C29          3.4830   -12.3190    21.3560 c6         1 I0N       0.160800
     23 C30          4.2340   -13.6110    20.9090 c6         1 I0N      -0.065400
     24 N21          4.2380   -11.0840    21.0190 n3         1 I0N      -0.722600
     25 O2          -1.5410   -14.2660    17.6460 os         1 I0N      -0.432100
     26 O4          -0.6420   -14.1780    19.7040 o          1 I0N      -0.413000
     27 O6           1.2370   -13.9500    16.5980 oh         1 I0N      -0.545100
     28 O9           3.7670   -13.8640    17.1560 o          1 I0N      -0.601100
     29 Cl           3.3560   -20.3460    20.3100 cl         1 I0N      -0.210000
     30 H1          -2.4770   -14.3900    15.7860 h1         1 I0N       0.055367
     31 H2          -1.0650   -13.3290    15.8230 h1         1 I0N       0.055367
     32 H3          -0.8660   -15.1130    15.8420 h1         1 I0N       0.055367
     33 H4           1.8810   -13.9620    19.8360 ha         1 I0N       0.219000
     34 H5           6.5670   -14.6730    19.7630 hc         1 I0N       0.062200
     35 H6           6.0420   -14.7830    18.1140 hc         1 I0N       0.062200
     36 H7           4.3060   -16.4930    17.4320 ha         1 I0N       0.122500
     37 H8           3.3590   -18.7370    17.9170 ha         1 I0N       0.131500
     38 H9           4.8220   -18.4950    21.9660 ha         1 I0N       0.131500
     39 H10          5.7710   -16.2460    21.4970 ha         1 I0N       0.122500
     40 H11          6.3460   -12.2410    19.7370 hc         1 I0N       0.057200
     41 H12          5.7000   -12.1650    18.1100 hc         1 I0N       0.057200
     42 H13          5.1330   -10.1250    19.3420 h1         1 I0N       0.040700
     43 H14          3.6410   -11.0030    18.9690 h1         1 I0N       0.040700
     44 H15          4.1560    -8.9720    21.1900 h1         1 I0N       0.040200
     45 H16          2.5860    -9.7470    20.9920 h1         1 I0N       0.040200
     46 H17          1.2090    -9.9540    22.9140 ha         1 I0N       0.116500
     47 H18          0.9100    -9.8620    25.3810 ha         1 I0N       0.112500
     48 H19          2.8950    -9.6510    26.8750 ha         1 I0N       0.112000
     49 H20          5.1850    -9.5330    25.8940 ha         1 I0N       0.112500
     50 H21          5.4900    -9.6260    23.4250 ha         1 I0N       0.116500
     51 H22          2.4860   -12.2700    20.9000 h1         1 I0N       0.040700
     52 H23          3.3230   -12.3830    22.4420 h1         1 I0N       0.040700
     53 H24          3.6260   -14.4920    21.1510 hc         1 I0N       0.057200
     54 H25          5.1290   -13.7000    21.5390 hc         1 I0N       0.057200
     55 H27          2.2300   -13.9070    16.5370 ho         1 I0N       0.533000
     56 C22          3.5630    -9.8490    21.4840 c3         1 I0N       0.213100
@<TRIPOS>BOND
     1     1    25 1   
     2     1    30 1   
     3     1    31 1   
     4     1    32 1   
     5     2     3 1   
     6     2    25 1   
     7     2    26 2   
     8     3     4 2   
     9     3    27 1   
    10     4     5 1   
    11     4    33 1   
    12     5     6 1   
    13     5    28 2   
    14     6     7 1   
    15     6    14 1   
    16     6    23 1   
    17     7     8 1   
    18     7    34 1   
    19     7    35 1   
    20     8     9 ar  
    21     8    13 ar  
    22     9    10 ar  
    23     9    36 1   
    24    10    11 ar  
    25    10    37 1   
    26    11    12 ar  
    27    11    29 1   
    28    12    13 ar  
    29    12    38 1   
    30    13    39 1   
    31    14    15 1   
    32    14    40 1   
    33    14    41 1   
    34    15    24 1   
    35    15    42 1   
    36    15    43 1   
    37    16    17 ar  
    38    16    21 ar  
    39    16    56 1   
    40    17    18 ar  
    41    17    46 1   
    42    18    19 ar  
    43    18    47 1   
    44    19    20 ar  
    45    19    48 1   
    46    20    21 ar  
    47    20    49 1   
    48    21    50 1   
    49    22    23 1   
    50    22    24 1   
    51    22    51 1   
    52    22    52 1   
    53    23    53 1   
    54    23    54 1   
    55    24    56 1   
    56    27    55 1   
    57    44    56 1   
    58    45    56 1   
@<TRIPOS>SUBSTRUCTURE
     1 I0N         1 TEMP              0 ****  ****    0 ROOT
