@<TRIPOS>MOLECULE
I0N
   56    58     1     0     0
SMALL
abcg2


@<TRIPOS>ATOM
      1 C1          -0.0280   -16.3650    16.7560 c3         1 I0N       0.168900
      2 C3          -0.2840   -14.6010    18.4100 c          1 I0N       0.611300
      3 C5           1.0780   -14.0750    18.0270 ce         1 I0N       0.110900
      4 C7           2.0450   -13.9290    18.9670 cf         1 I0N      -0.428200
      5 C8           3.3510   -13.4430    18.5880 c          1 I0N       0.603300
      6 C10          4.5090   -13.4440    19.5880 c6         1 I0N      -0.123000
      7 C11          5.3380   -14.7370    19.2900 c3         1 I0N      -0.024100
      8 C12          4.5290   -16.0020    19.1760 ca         1 I0N      -0.083300
      9 C13          4.1680   -16.4900    17.9190 ca         1 I0N      -0.097500
     10 C14          3.3590   -17.6110    17.7820 ca         1 I0N      -0.105000
     11 C15          2.8990   -18.2490    18.9250 ca         1 I0N       0.121000
     12 C17          3.2600   -17.8060    20.1900 ca         1 I0N      -0.105000
     13 C18          4.0790   -16.6890    20.3050 ca         1 I0N      -0.097500
     14 C19          5.4160   -12.2250    19.3470 c6         1 I0N      -0.065400
     15 C20          4.7620   -10.9200    19.7800 c6         1 I0N       0.160800
     16 C23          3.6690    -9.6070    23.1290 ca         1 I0N      -0.089300
     17 C24          2.4370    -9.3000    23.7010 ca         1 I0N      -0.097000
     18 C25          2.2910    -9.2260    25.0840 ca         1 I0N      -0.115000
     19 C26          3.3810    -9.4640    25.9130 ca         1 I0N      -0.108000
     20 C27          4.6180    -9.7740    25.3500 ca         1 I0N      -0.115000
     21 C28          4.7590    -9.8420    23.9700 ca         1 I0N      -0.097000
     22 C29          3.4390   -12.0580    21.4310 c6         1 I0N       0.160800
     23 C30          4.0530   -13.3990    21.0540 c6         1 I0N      -0.065400
     24 N21          4.3760   -10.9640    21.1890 n3         1 I0N      -0.722600
     25 O2          -0.8080   -15.6040    17.7150 os         1 I0N      -0.432100
     26 O4          -0.8970   -14.1080    19.3280 o          1 I0N      -0.413000
     27 O6           1.2270   -13.7620    16.7500 oh         1 I0N      -0.545100
     28 O9           3.5650   -13.0920    17.4110 o          1 I0N      -0.601100
     29 CL           1.8440   -19.6400    18.7660 cl         1 I0N      -0.210000
     30 H1          -0.5090   -17.3370    16.7070 h1         1 I0N       0.055367
     31 H2          -0.0570   -15.8730    15.7880 h1         1 I0N       0.055367
     32 H3           0.9970   -16.4780    17.1000 h1         1 I0N       0.055367
     33 H4           1.8240   -14.2170    19.9790 ha         1 I0N       0.219000
     34 H5           6.0780   -14.8270    20.0870 hc         1 I0N       0.062200
     35 H6           5.8760   -14.5740    18.3550 hc         1 I0N       0.062200
     36 H7           4.5130   -15.9790    17.0290 ha         1 I0N       0.122500
     37 H8           3.0840   -17.9780    16.8030 ha         1 I0N       0.131500
     38 H9           2.9070   -18.3240    21.0710 ha         1 I0N       0.131500
     39 H10          4.3650   -16.3510    21.2920 ha         1 I0N       0.122500
     40 H11          6.3350   -12.3740    19.9200 hc         1 I0N       0.057200
     41 H12          5.6880   -12.1680    18.2930 hc         1 I0N       0.057200
     42 H13          5.4620   -10.0940    19.6410 h1         1 I0N       0.040700
     43 H14          3.8860   -10.7130    19.1400 h1         1 I0N       0.040700
     44 H15          4.5310    -8.9050    21.3040 h1         1 I0N       0.040200
     45 H16          2.8660    -9.4670    21.1480 h1         1 I0N       0.040200
     46 H17          1.5820    -9.1240    23.0570 ha         1 I0N       0.116500
     47 H18          1.3240    -8.9890    25.5120 ha         1 I0N       0.112500
     48 H19          3.2700    -9.4110    26.9890 ha         1 I0N       0.112000
     49 H20          5.4730    -9.9590    25.9900 ha         1 I0N       0.112500
     50 H21          5.7190   -10.0900    23.5340 ha         1 I0N       0.116500
     51 H22          2.5020   -11.8930    20.8690 h1         1 I0N       0.040700
     52 H23          3.1750   -12.0640    22.4890 h1         1 I0N       0.040700
     53 H24          3.3550   -14.2010    21.2890 hc         1 I0N       0.057200
     54 H25          4.9360   -13.5640    21.6760 hc         1 I0N       0.057200
     55 H27          2.1750   -13.4160    16.6810 ho         1 I0N       0.533000
     56 C22          3.8340    -9.6810    21.6310 c3         1 I0N       0.213100
@<TRIPOS>BOND
     1     1    25 1   
     2     1    30 1   
     3     1    31 1   
     4     1    32 1   
     5     2     3 1   
     6     2    25 1   
     7     2    26 2   
     8     3     4 2   
     9     3    27 1   
    10     4     5 1   
    11     4    33 1   
    12     5     6 1   
    13     5    28 2   
    14     6     7 1   
    15     6    14 1   
    16     6    23 1   
    17     7     8 1   
    18     7    34 1   
    19     7    35 1   
    20     8     9 ar  
    21     8    13 ar  
    22     9    10 ar  
    23     9    36 1   
    24    10    11 ar  
    25    10    37 1   
    26    11    12 ar  
    27    11    29 1   
    28    12    13 ar  
    29    12    38 1   
    30    13    39 1   
    31    14    15 1   
    32    14    40 1   
    33    14    41 1   
    34    15    24 1   
    35    15    42 1   
    36    15    43 1   
    37    16    17 ar  
    38    16    21 ar  
    39    16    56 1   
    40    17    18 ar  
    41    17    46 1   
    42    18    19 ar  
    43    18    47 1   
    44    19    20 ar  
    45    19    48 1   
    46    20    21 ar  
    47    20    49 1   
    48    21    50 1   
    49    22    23 1   
    50    22    24 1   
    51    22    51 1   
    52    22    52 1   
    53    23    53 1   
    54    23    54 1   
    55    24    56 1   
    56    27    55 1   
    57    44    56 1   
    58    45    56 1   
@<TRIPOS>SUBSTRUCTURE
     1 I0N         1 TEMP              0 ****  ****    0 ROOT
