@<TRIPOS>MOLECULE
I0Q
   88    92     1     0     0
SMALL
No Charge or Current Charge


@<TRIPOS>ATOM
      1 CAA         53.6790   -29.2700     5.7600 c3         1 I0Q      -0.181100
      2 CAB         53.0820   -29.0580     4.3770 c          1 I0Q       0.602100
      3 CAE         53.4820   -29.4670     1.9200 c3         1 I0Q       0.107000
      4 CAF         52.8880   -30.7990     1.3760 c6         1 I0Q      -0.093700
      5 CAG         51.5790   -31.2170     2.1050 c6         1 I0Q      -0.102400
      6 CAH         51.0080   -32.5300     1.5310 c6         1 I0Q       0.099600
      7 CAJ         52.0670   -32.0290    -0.7100 c6         1 I0Q       0.099600
      8 CAK         52.6410   -30.7100    -0.1540 c6         1 I0Q      -0.102400
      9 CAL         50.1080   -33.6420    -0.5650 c3         1 I0Q       0.148900
     10 CAM         49.5420   -33.4090    -1.9520 ca         1 I0Q      -0.092300
     11 CAN         50.2230   -33.8410    -3.1000 ca         1 I0Q      -0.158000
     12 CAO         49.6660   -33.6040    -4.3650 ca         1 I0Q       0.601300
     13 CAQ         47.8230   -32.5160    -3.4450 cp         1 I0Q       0.491500
     14 CAR         48.3220   -32.7390    -2.1370 ca         1 I0Q      -0.198000
     15 CAS         46.5180   -31.8130    -3.7110 cp         1 I0Q      -0.162500
     16 CAT         45.9380   -30.9280    -2.7590 ca         1 I0Q      -0.071000
     17 CAU         44.7200   -30.2750    -3.0180 ca         1 I0Q       0.118500
     18 CAW         44.0470   -30.4840    -4.2290 ca         1 I0Q      -0.061000
     19 CAX         44.5970   -31.3470    -5.1870 ca         1 I0Q       0.118500
     20 CAZ         45.8140   -32.0010    -4.9350 ca         1 I0Q      -0.071000
     21 CBB         49.7850   -34.2840    -6.7010 ca         1 I0Q      -0.075900
     22 CBC         50.4310   -33.9020    -7.8880 ca         1 I0Q       0.176400
     23 CBE         48.6900   -34.7740    -9.1230 ca         1 I0Q       0.403900
     24 CBG         48.5500   -34.9510    -6.8290 ca         1 I0Q       0.176400
     25 CBI         48.6880   -34.4220   -11.6560 c6         1 I0Q       0.202300
     26 CBJ         48.4240   -35.2940   -12.9120 c6         1 I0Q       0.069600
     27 CBL         46.6790   -36.4570   -14.3530 c3         1 I0Q       0.091600
     28 CBM         45.1850   -36.6270   -14.6860 c3         1 I0Q      -0.084400
     29 CBN         44.9330   -37.3750   -16.0230 c3         1 I0Q      -0.199700
     30 CBO         45.4530   -38.8350   -15.9970 c3         1 I0Q      -0.067100
     31 CBP         43.4380   -37.3230   -16.4210 c          1 I0Q       0.722000
     32 CBS         46.4280   -36.3260   -11.8010 c6         1 I0Q       0.069600
     33 CBT         46.6740   -35.4640   -10.5330 c6         1 I0Q       0.202300
     34 NAD         53.8500   -29.5340     3.3390 ns         1 I0Q      -0.518900
     35 NAI         50.7720   -32.4050     0.0210 nx         1 I0Q      -0.667000
     36 NAP         48.4980   -32.9470    -4.5300 nb         1 I0Q      -0.727000
     37 NBD         49.8850   -34.1430    -9.0970 nb         1 I0Q      -0.231500
     38 NBF         48.0040   -35.1930    -8.0370 nb         1 I0Q      -0.231500
     39 NBH         48.1130   -35.0310   -10.4010 nh         1 I0Q      -0.788300
     40 NBK         46.9340   -35.6410   -13.0880 nx         1 I0Q      -0.665000
     41 OAC         52.0040   -28.5090     4.2050 o          1 I0Q      -0.600100
     42 OBA         50.3700   -34.0320    -5.4720 os         1 I0Q      -0.328400
     43 OBQ         42.6190   -37.8490   -15.6810 o          1 I0Q      -0.699500
     44 OBR         43.1410   -36.7500   -17.4580 o          1 I0Q      -0.699500
     45 Cl1         44.0390   -29.1850    -1.8160 cl         1 I0Q      -0.164000
     46 Cl2         43.7600   -31.6130    -6.7120 cl         1 I0Q      -0.164000
     47 HAB         53.8910   -30.3360     5.8970 hc         1 I0Q       0.070367
     48 HAC         54.6800   -28.8270     5.7880 hc         1 I0Q       0.070367
     49 HAA         53.0400   -28.8790     6.5600 hc         1 I0Q       0.070367
     50 HAF         54.3850   -29.2200     1.3440 h1         1 I0Q       0.071200
     51 HAE         52.7590   -28.6550     1.7610 h1         1 I0Q       0.071200
     52 HAG         53.6490   -31.5730     1.5560 hc         1 I0Q       0.062700
     53 HAH         51.7660   -31.3550     3.1780 hc         1 I0Q       0.088950
     54 HAI         50.8280   -30.4200     2.0200 hc         1 I0Q       0.088950
     55 HAK         50.0570   -32.7890     2.0090 hx         1 I0Q       0.096450
     56 HAJ         51.7040   -33.3610     1.6900 hx         1 I0Q       0.096450
     57 HAM         51.8450   -31.9450    -1.7790 hx         1 I0Q       0.096450
     58 HAL         52.7760   -32.8530    -0.5740 hx         1 I0Q       0.096450
     59 HAO         53.5790   -30.4770    -0.6770 hc         1 I0Q       0.088950
     60 HAN         51.9470   -29.8880    -0.3800 hc         1 I0Q       0.088950
     61 HAQ         49.3010   -33.9490     0.1060 hx         1 I0Q       0.105200
     62 HAP         50.8410   -34.4530    -0.5820 hx         1 I0Q       0.105200
     63 HAR         51.1740   -34.3610    -3.0260 ha         1 I0Q       0.151000
     64 HAS         47.7560   -32.4080    -1.2720 ha         1 I0Q       0.132000
     65 HAT         46.4370   -30.7240    -1.8160 ha         1 I0Q       0.134500
     66 HAW         43.1060   -29.9790    -4.4260 ha         1 I0Q       0.161000
     67 HAZ         46.2100   -32.6670    -5.6990 ha         1 I0Q       0.134500
     68 HBC         51.3940   -33.3930    -7.8740 h4         1 I0Q       0.042100
     69 HBG         47.9930   -35.3020    -5.9620 h4         1 I0Q       0.042100
     70 HBJ         49.7780   -34.2920   -11.5830 h1         1 I0Q       0.096950
     71 HBI         48.2600   -33.4210   -11.8200 h1         1 I0Q       0.096950
     72 HBL         48.9710   -36.2390   -12.8310 hx         1 I0Q       0.108950
     73 HBK         48.7710   -34.7850   -13.8180 hx         1 I0Q       0.108950
     74 HBN         47.1410   -37.4400   -14.2290 hx         1 I0Q       0.084700
     75 HBM         47.1700   -35.9540   -15.1900 hx         1 I0Q       0.084700
     76 HBP         44.7250   -35.6330   -14.7450 hc         1 I0Q       0.064700
     77 HBO         44.6830   -37.1620   -13.8710 hc         1 I0Q       0.064700
     78 HBQ         45.4950   -36.8480   -16.8050 hc         1 I0Q       0.035700
     79 HBT         46.5380   -38.8650   -15.8390 hc         1 I0Q       0.022700
     80 HBR         44.9730   -39.4090   -15.1950 hc         1 I0Q       0.022700
     81 HBS         45.2400   -39.3340   -16.9500 hc         1 I0Q       0.022700
     82 HBU         45.3610   -36.5430   -11.9170 hx         1 I0Q       0.108950
     83 HBV         46.9550   -37.2810   -11.7120 hx         1 I0Q       0.108950
     84 HBX         46.0170   -34.5830   -10.5690 h1         1 I0Q       0.096950
     85 HBW         46.3470   -36.0670    -9.6730 h1         1 I0Q       0.096950
     86 HAD         54.7300   -29.9700     3.5890 hn         1 I0Q       0.320500
     87 HBY         50.0960   -31.6210    -0.1220 hn         1 I0Q       0.500000
     88 HBZ         46.4140   -34.7390   -13.1960 hn         1 I0Q       0.498000
@<TRIPOS>BOND
     1     1     2 1   
     2     1    47 1   
     3     1    48 1   
     4     1    49 1   
     5     2    34 1   
     6     2    41 2   
     7     3     4 1   
     8     3    34 1   
     9     3    50 1   
    10     3    51 1   
    11     4     5 1   
    12     4     8 1   
    13     4    52 1   
    14     5     6 1   
    15     5    53 1   
    16     5    54 1   
    17     6    35 1   
    18     6    55 1   
    19     6    56 1   
    20     7     8 1   
    21     7    35 1   
    22     7    57 1   
    23     7    58 1   
    24     8    59 1   
    25     8    60 1   
    26     9    10 1   
    27     9    35 1   
    28     9    61 1   
    29     9    62 1   
    30    10    11 ar  
    31    10    14 ar  
    32    11    12 ar  
    33    11    63 1   
    34    12    36 ar  
    35    12    42 1   
    36    13    14 ar  
    37    13    15 1   
    38    13    36 ar  
    39    14    64 1   
    40    15    16 ar  
    41    15    20 ar  
    42    16    17 ar  
    43    16    65 1   
    44    17    18 ar  
    45    17    45 1   
    46    18    19 ar  
    47    18    66 1   
    48    19    20 ar  
    49    19    46 1   
    50    20    67 1   
    51    21    22 ar  
    52    21    24 ar  
    53    21    42 1   
    54    22    37 ar  
    55    22    68 1   
    56    23    37 ar  
    57    23    38 ar  
    58    23    39 1   
    59    24    38 ar  
    60    24    69 1   
    61    25    26 1   
    62    25    39 1   
    63    25    70 1   
    64    25    71 1   
    65    26    40 1   
    66    26    72 1   
    67    26    73 1   
    68    27    28 1   
    69    27    40 1   
    70    27    74 1   
    71    27    75 1   
    72    28    29 1   
    73    28    76 1   
    74    28    77 1   
    75    29    30 1   
    76    29    31 1   
    77    29    78 1   
    78    30    79 1   
    79    30    80 1   
    80    30    81 1   
    81    31    43 1   
    82    31    44 1   
    83    32    33 1   
    84    32    40 1   
    85    32    82 1   
    86    32    83 1   
    87    33    39 1   
    88    33    84 1   
    89    33    85 1   
    90    34    86 1   
    91    35    87 1   
    92    40    88 1   
@<TRIPOS>SUBSTRUCTURE
     1 I0Q         1 TEMP              0 ****  ****    0 ROOT
