@<TRIPOS>MOLECULE
I0Q
   88    92     1     0     0
SMALL
abcg2


@<TRIPOS>ATOM
      1 CAA         54.3090   -29.0490     4.8220 c3         1 I0Q      -0.181100
      2 CAB         53.5900   -28.9680     3.4970 c          1 I0Q       0.602100
      3 CAE         53.6380   -29.7270     1.1480 c3         1 I0Q       0.107000
      4 CAF         52.9280   -31.0420     0.8340 c6         1 I0Q      -0.093700
      5 CAG         51.7000   -31.2640     1.7100 c6         1 I0Q      -0.102400
      6 CAH         50.9740   -32.5420     1.3420 c6         1 I0Q       0.099600
      7 CAJ         51.7690   -32.3460    -0.9860 c6         1 I0Q       0.099600
      8 CAK         52.5090   -31.0730    -0.6310 c6         1 I0Q      -0.102400
      9 CAL         49.8100   -33.7770    -0.4470 c3         1 I0Q       0.148900
     10 CAM         49.2050   -33.6870    -1.8170 ca         1 I0Q      -0.092300
     11 CAN         49.6880   -34.4580    -2.8540 ca         1 I0Q      -0.158000
     12 CAO         49.0610   -34.3140    -4.0930 ca         1 I0Q       0.601300
     13 CAQ         47.6100   -32.7330    -3.3240 cp         1 I0Q       0.491500
     14 CAR         48.1380   -32.8170    -2.0460 ca         1 I0Q      -0.198000
     15 CAS         46.4960   -31.8240    -3.6700 cp         1 I0Q      -0.162500
     16 CAT         46.1810   -30.7300    -2.8680 ca         1 I0Q      -0.071000
     17 CAU         45.1370   -29.8970    -3.2300 ca         1 I0Q       0.118500
     18 CAW         44.3910   -30.1150    -4.3770 ca         1 I0Q      -0.061000
     19 CAX         44.7250   -31.2050    -5.1650 ca         1 I0Q       0.118500
     20 CAZ         45.7610   -32.0570    -4.8310 ca         1 I0Q      -0.071000
     21 CBB         48.8910   -34.9630    -6.3220 ca         1 I0Q      -0.075900
     22 CBC         49.3400   -34.0820    -7.2880 ca         1 I0Q       0.176400
     23 CBE         47.6780   -34.7430    -8.6830 ca         1 I0Q       0.403900
     24 CBG         47.7920   -35.7360    -6.6470 ca         1 I0Q       0.176400
     25 CBI         47.4830   -33.7020   -10.9050 c6         1 I0Q       0.202300
     26 CBJ         47.8220   -34.4730   -12.1650 c6         1 I0Q       0.069600
     27 CBL         47.0120   -36.0620   -13.8580 c3         1 I0Q       0.091600
     28 CBM         45.8170   -36.7490   -14.4920 c3         1 I0Q      -0.084400
     29 CBN         46.1450   -37.2860   -15.8900 c3         1 I0Q      -0.199700
     30 CBO         47.2340   -38.3480   -15.8550 c3         1 I0Q      -0.067100
     31 CBP         44.8340   -37.7620   -16.5770 c          1 I0Q       0.722000
     32 CBS         46.2030   -36.2000   -11.5050 c6         1 I0Q       0.069600
     33 CBT         45.8970   -35.3960   -10.2560 c6         1 I0Q       0.202300
     34 NAD         54.1580   -29.6610     2.4920 ns         1 I0Q      -0.518900
     35 NAI         50.5760   -32.5380    -0.1020 nx         1 I0Q      -0.667000
     36 NAP         48.0770   -33.4880    -4.3200 nb         1 I0Q      -0.727000
     37 NBD         48.7470   -33.9730    -8.4620 nb         1 I0Q      -0.231500
     38 NBF         47.1890   -35.6350    -7.8160 nb         1 I0Q      -0.231500
     39 NBH         47.0350   -34.6000    -9.8700 nh         1 I0Q      -0.788300
     40 NBK         46.6650   -35.3080   -12.6110 nx         1 I0Q      -0.665000
     41 OAC         52.5670   -28.3110     3.3640 o          1 I0Q      -0.600100
     42 OBA         49.5200   -35.0790    -5.1070 os         1 I0Q      -0.328400
     43 OBQ         44.8120   -38.9120   -17.0530 o          1 I0Q      -0.699500
     44 OBR         43.9060   -36.9280   -16.5980 o          1 I0Q      -0.699500
     45 CL1         44.7620   -28.5350    -2.2340 cl         1 I0Q      -0.164000
     46 CL2         43.8210   -31.5010    -6.6080 cl         1 I0Q      -0.164000
     47 HAB         53.6430   -29.4860     5.5660 hc         1 I0Q       0.070367
     48 HAC         55.2240   -29.6370     4.7930 hc         1 I0Q       0.070367
     49 HAA         54.5550   -28.0430     5.1620 hc         1 I0Q       0.070367
     50 HAF         54.4650   -29.5940     0.4480 h1         1 I0Q       0.071200
     51 HAE         52.9530   -28.8910     0.9990 h1         1 I0Q       0.071200
     52 HAG         53.6320   -31.8660     1.0080 hc         1 I0Q       0.062700
     53 HAH         51.9760   -31.3430     2.7620 hc         1 I0Q       0.088950
     54 HAI         51.0190   -30.4120     1.6210 hc         1 I0Q       0.088950
     55 HAK         50.0630   -32.6650     1.9260 hx         1 I0Q       0.096450
     56 HAJ         51.6070   -33.4180     1.4860 hx         1 I0Q       0.096450
     57 HAM         51.4180   -32.3200    -2.0160 hx         1 I0Q       0.096450
     58 HAL         52.3950   -33.2300    -0.8520 hx         1 I0Q       0.096450
     59 HAO         53.3800   -31.0090    -1.2870 hc         1 I0Q       0.088950
     60 HAN         51.8770   -30.2090    -0.8610 hc         1 I0Q       0.088950
     61 HAQ         49.0310   -33.8890     0.3080 hx         1 I0Q       0.105200
     62 HAP         50.4980   -34.6160    -0.3590 hx         1 I0Q       0.105200
     63 HAR         50.5110   -35.1480    -2.7180 ha         1 I0Q       0.151000
     64 HAS         47.7240   -32.2450    -1.2250 ha         1 I0Q       0.132000
     65 HAT         46.7500   -30.5030    -1.9770 ha         1 I0Q       0.134500
     66 HAW         43.5790   -29.4550    -4.6500 ha         1 I0Q       0.161000
     67 HAZ         46.0000   -32.8990    -5.4650 ha         1 I0Q       0.134500
     68 HBC         50.2030   -33.4490    -7.1080 h4         1 I0Q       0.042100
     69 HBG         47.3910   -36.4580    -5.9430 h4         1 I0Q       0.042100
     70 HBJ         48.3660   -33.1600   -10.5810 h1         1 I0Q       0.096950
     71 HBI         46.7000   -32.9660   -11.1180 h1         1 I0Q       0.096950
     72 HBL         48.6570   -35.1540   -12.0000 hx         1 I0Q       0.108950
     73 HBK         48.0690   -33.7950   -12.9790 hx         1 I0Q       0.108950
     74 HBN         47.8030   -36.7580   -13.5820 hx         1 I0Q       0.084700
     75 HBM         47.4310   -35.3260   -14.5460 hx         1 I0Q       0.084700
     76 HBP         44.9950   -36.0360   -14.5780 hc         1 I0Q       0.064700
     77 HBO         45.4690   -37.5760   -13.8670 hc         1 I0Q       0.064700
     78 HBQ         46.5100   -36.4370   -16.4840 hc         1 I0Q       0.035700
     79 HBT         48.1750   -37.9570   -15.4630 hc         1 I0Q       0.022700
     80 HBR         46.9430   -39.1940   -15.2300 hc         1 I0Q       0.022700
     81 HBS         47.4400   -38.7330   -16.8530 hc         1 I0Q       0.022700
     82 HBU         45.3100   -36.7230   -11.8410 hx         1 I0Q       0.108950
     83 HBV         46.9980   -36.9240   -11.3290 hx         1 I0Q       0.108950
     84 HBX         45.0370   -34.7420   -10.4380 h1         1 I0Q       0.096950
     85 HBW         45.6270   -36.0830    -9.4600 h1         1 I0Q       0.096950
     86 HAD         54.9950   -30.1870     2.6850 hn         1 I0Q       0.320500
     87 HBY         49.9520   -31.7380    -0.2420 hn         1 I0Q       0.500000
     88 HBZ         45.8940   -34.6730   -12.8430 hn         1 I0Q       0.498000
@<TRIPOS>BOND
     1     1     2 1   
     2     1    47 1   
     3     1    48 1   
     4     1    49 1   
     5     2    34 1   
     6     2    41 2   
     7     3     4 1   
     8     3    34 1   
     9     3    50 1   
    10     3    51 1   
    11     4     5 1   
    12     4     8 1   
    13     4    52 1   
    14     5     6 1   
    15     5    53 1   
    16     5    54 1   
    17     6    35 1   
    18     6    55 1   
    19     6    56 1   
    20     7     8 1   
    21     7    35 1   
    22     7    57 1   
    23     7    58 1   
    24     8    59 1   
    25     8    60 1   
    26     9    10 1   
    27     9    35 1   
    28     9    61 1   
    29     9    62 1   
    30    10    11 ar  
    31    10    14 ar  
    32    11    12 ar  
    33    11    63 1   
    34    12    36 ar  
    35    12    42 1   
    36    13    14 ar  
    37    13    15 1   
    38    13    36 ar  
    39    14    64 1   
    40    15    16 ar  
    41    15    20 ar  
    42    16    17 ar  
    43    16    65 1   
    44    17    18 ar  
    45    17    45 1   
    46    18    19 ar  
    47    18    66 1   
    48    19    20 ar  
    49    19    46 1   
    50    20    67 1   
    51    21    22 ar  
    52    21    24 ar  
    53    21    42 1   
    54    22    37 ar  
    55    22    68 1   
    56    23    37 ar  
    57    23    38 ar  
    58    23    39 1   
    59    24    38 ar  
    60    24    69 1   
    61    25    26 1   
    62    25    39 1   
    63    25    70 1   
    64    25    71 1   
    65    26    40 1   
    66    26    72 1   
    67    26    73 1   
    68    27    28 1   
    69    27    40 1   
    70    27    74 1   
    71    27    75 1   
    72    28    29 1   
    73    28    76 1   
    74    28    77 1   
    75    29    30 1   
    76    29    31 1   
    77    29    78 1   
    78    30    79 1   
    79    30    80 1   
    80    30    81 1   
    81    31    43 1   
    82    31    44 1   
    83    32    33 1   
    84    32    40 1   
    85    32    82 1   
    86    32    83 1   
    87    33    39 1   
    88    33    84 1   
    89    33    85 1   
    90    34    86 1   
    91    35    87 1   
    92    40    88 1   
@<TRIPOS>SUBSTRUCTURE
     1 I0Q         1 TEMP              0 ****  ****    0 ROOT
