@<TRIPOS>MOLECULE
I0R
   37    40     1     0     0
SMALL
No Charge or Current Charge


@<TRIPOS>ATOM
      1 C01        -17.3420   -12.2910  -100.0790 cc         1 I0R      -0.138900
      2 C02        -15.9770   -12.3370  -100.1510 cd         1 I0R      -0.179600
      3 C03        -17.8350   -12.2450  -101.3890 cc         1 I0R      -0.215000
      4 C04        -16.8190   -12.2620  -102.2600 cd         1 I0R       0.333500
      5 C06        -15.1670   -12.3910   -98.9160 c          1 I0R       0.572600
      6 C10        -18.4620   -12.1730  -103.6810 cc         1 I0R       0.482700
      7 C12        -19.1870   -12.1260  -104.9910 c3         1 I0R      -0.135400
      8 C13        -18.0230   -12.2940   -98.8170 cc         1 I0R       0.407800
      9 C17        -14.9730   -13.8900   -95.9890 ca         1 I0R      -0.156300
     10 C18        -13.6690   -14.4040   -96.1400 ca         1 I0R      -0.046500
     11 C19        -13.3800   -15.7200   -95.7410 ca         1 I0R      -0.178500
     12 C20        -14.3860   -16.5270   -95.1910 ca         1 I0R       0.142100
     13 C21        -15.6870   -16.0220   -95.0400 ca         1 I0R      -0.178500
     14 C22        -15.9800   -14.7050   -95.4380 ca         1 I0R      -0.046500
     15 N05        -15.6280   -12.3190  -101.5260 na         1 I0R      -0.086500
     16 N07        -15.9790   -12.3910   -97.7350 n          1 I0R      -0.142800
     17 N08        -17.1250   -12.2230  -103.6030 nd         1 I0R      -0.632000
     18 N14        -17.3950   -12.3430   -97.6350 nd         1 I0R      -0.441300
     19 O11        -13.9410   -12.4290   -98.9080 o          1 I0R      -0.570000
     20 O23        -14.0940   -17.8010   -94.8080 oh         1 I0R      -0.538100
     21 S09        -19.3760   -12.1760  -102.1570 ss         1 I0R      -0.039400
     22 H1         -18.5420   -11.7350  -105.7860 hc         1 I0R       0.063033
     23 H2         -19.5180   -13.1290  -105.2820 hc         1 I0R       0.063033
     24 H3         -20.0700   -11.4810  -104.9230 hc         1 I0R       0.063033
     25 H4         -19.1010   -12.2580   -98.7490 h4         1 I0R       0.047800
     26 H5         -13.7040   -11.4850  -101.7280 h1         1 I0R       0.070367
     27 H6         -13.7640   -13.2730  -101.7580 h1         1 I0R       0.070367
     28 H7         -14.3120   -12.3360  -103.1790 h1         1 I0R       0.070367
     29 H8         -14.3740   -11.8680   -96.4620 h1         1 I0R       0.074700
     30 H9         -15.9330   -11.9940   -95.6630 h1         1 I0R       0.074700
     31 H10        -12.8820   -13.7860   -96.5680 ha         1 I0R       0.124500
     32 H11        -12.3730   -16.1130   -95.8590 ha         1 I0R       0.122000
     33 H12        -16.4740   -16.6400   -94.6160 ha         1 I0R       0.122000
     34 H13        -16.9920   -14.3200   -95.3210 ha         1 I0R       0.124500
     35 H14        -14.9110   -18.2110   -94.4500 ho         1 I0R       0.462000
     36 C15        -14.2690   -12.3560  -102.0830 c3         1 I0R       0.060900
     37 C16        -15.2960   -12.4630   -96.4240 c3         1 I0R       0.171300
@<TRIPOS>BOND
     1     1     2 2   
     2     1     3 1   
     3     1     8 1   
     4     2     5 1   
     5     2    15 1   
     6     3     4 2   
     7     3    21 1   
     8     4    15 1   
     9     4    17 1   
    10     5    16 1   
    11     5    19 2   
    12     6     7 1   
    13     6    17 2   
    14     6    21 1   
    15     7    22 1   
    16     7    23 1   
    17     7    24 1   
    18     8    18 2   
    19     8    25 1   
    20     9    10 ar  
    21     9    14 ar  
    22     9    37 1   
    23    10    11 ar  
    24    10    31 1   
    25    11    12 ar  
    26    11    32 1   
    27    12    13 ar  
    28    12    20 1   
    29    13    14 ar  
    30    13    33 1   
    31    14    34 1   
    32    15    36 1   
    33    16    18 1   
    34    16    37 1   
    35    20    35 1   
    36    26    36 1   
    37    27    36 1   
    38    28    36 1   
    39    29    37 1   
    40    30    37 1   
@<TRIPOS>SUBSTRUCTURE
     1 I0R         1 TEMP              0 ****  ****    0 ROOT
