@<TRIPOS>MOLECULE
I0R
   37    40     1     0     0
SMALL
abcg2


@<TRIPOS>ATOM
      1 C01        -17.4710   -12.3360   -99.9560 cc         1 I0R      -0.138900
      2 C02        -16.0680   -12.2950  -100.0720 cd         1 I0R      -0.179600
      3 C03        -17.9710   -12.3220  -101.2790 cc         1 I0R      -0.215000
      4 C04        -16.8690   -12.2770  -102.1240 cd         1 I0R       0.333500
      5 C06        -15.2240   -12.3070   -98.9130 c          1 I0R       0.572600
      6 C10        -18.3660   -12.2900  -103.6980 cc         1 I0R       0.482700
      7 C12        -18.9800   -12.2810  -105.0540 c3         1 I0R      -0.135400
      8 C13        -18.0340   -12.3780   -98.6600 cc         1 I0R       0.407800
      9 C17        -14.9430   -13.8420   -96.0320 ca         1 I0R      -0.156300
     10 C18        -13.7370   -14.4680   -96.3520 ca         1 I0R      -0.046500
     11 C19        -13.4970   -15.7880   -95.9980 ca         1 I0R      -0.178500
     12 C20        -14.4730   -16.5080   -95.3110 ca         1 I0R       0.142100
     13 C21        -15.6830   -15.8980   -94.9810 ca         1 I0R      -0.178500
     14 C22        -15.9070   -14.5750   -95.3410 ca         1 I0R      -0.046500
     15 N05        -15.7070   -12.2580  -101.3980 na         1 I0R      -0.086500
     16 N07        -15.9510   -12.3430   -97.7240 n          1 I0R      -0.142800
     17 N08        -17.0820   -12.2590  -103.4660 nd         1 I0R      -0.632000
     18 N14        -17.2960   -12.3830   -97.5890 nd         1 I0R      -0.441300
     19 O11        -13.9850   -12.2900   -98.9060 o          1 I0R      -0.570000
     20 O23        -14.1910   -17.8020   -94.9820 oh         1 I0R      -0.538100
     21 S09        -19.3910   -12.3440  -102.2570 ss         1 I0R      -0.039400
     22 H1         -18.1920   -12.2540  -105.8040 hc         1 I0R       0.063033
     23 H2         -19.5920   -13.1720  -105.2120 hc         1 I0R       0.063033
     24 H3         -19.6250   -11.4100  -105.1840 hc         1 I0R       0.063033
     25 H4         -19.1040   -12.4050   -98.5010 h4         1 I0R       0.047800
     26 H5         -13.6490   -12.1270  -101.1790 h1         1 I0R       0.070367
     27 H6         -14.1860   -13.1510  -102.5310 h1         1 I0R       0.070367
     28 H7         -14.2930   -11.3830  -102.6640 h1         1 I0R       0.070367
     29 H8         -14.2880   -11.8690   -96.5750 h1         1 I0R       0.074700
     30 H9         -15.8370   -11.9120   -95.7160 h1         1 I0R       0.074700
     31 H10        -12.9780   -13.9150   -96.8900 ha         1 I0R       0.124500
     32 H11        -12.5590   -16.2690   -96.2460 ha         1 I0R       0.122000
     33 H12        -16.4380   -16.4570   -94.4410 ha         1 I0R       0.122000
     34 H13        -16.8470   -14.1070   -95.0760 ha         1 I0R       0.124500
     35 H14        -14.9370   -18.1930   -94.5070 ho         1 I0R       0.462000
     36 C15        -14.3710   -12.2280  -101.9810 c3         1 I0R       0.060900
     37 C16        -15.2150   -12.4190   -96.4490 c3         1 I0R       0.171300
@<TRIPOS>BOND
     1     1     2 2   
     2     1     3 1   
     3     1     8 1   
     4     2     5 1   
     5     2    15 1   
     6     3     4 2   
     7     3    21 1   
     8     4    15 1   
     9     4    17 1   
    10     5    16 1   
    11     5    19 2   
    12     6     7 1   
    13     6    17 2   
    14     6    21 1   
    15     7    22 1   
    16     7    23 1   
    17     7    24 1   
    18     8    18 2   
    19     8    25 1   
    20     9    10 ar  
    21     9    14 ar  
    22     9    37 1   
    23    10    11 ar  
    24    10    31 1   
    25    11    12 ar  
    26    11    32 1   
    27    12    13 ar  
    28    12    20 1   
    29    13    14 ar  
    30    13    33 1   
    31    14    34 1   
    32    15    36 1   
    33    16    18 1   
    34    16    37 1   
    35    20    35 1   
    36    26    36 1   
    37    27    36 1   
    38    28    36 1   
    39    29    37 1   
    40    30    37 1   
@<TRIPOS>SUBSTRUCTURE
     1 I0R         1 TEMP              0 ****  ****    0 ROOT
