@<TRIPOS>MOLECULE
I0S
   57    60     1     0     0
SMALL
abcg2


@<TRIPOS>ATOM
      1 N          143.0130   134.0130   157.2850 n3         1 I0S      -0.781500
      2 CA         143.3580   133.9980   155.8840 c6         1 I0S       0.168500
      3 C          144.7630   134.5780   155.6830 c          1 I0S       0.595100
      4 O          145.5090   134.8440   156.5920 o          1 I0S      -0.502100
      5 CB         143.1810   132.5870   155.2590 c6         1 I0S      -0.081400
      6 CAE        143.0780   131.4960   156.3190 c6         1 I0S      -0.068400
      7 CAF        144.0400   131.7950   157.4540 c6         1 I0S      -0.088400
      8 CAG        143.5570   133.0220   158.2160 c6         1 I0S       0.236800
      9 CAJ        140.4870   134.3180   158.1550 ca         1 I0S      -0.295500
     10 CAK        140.0960   133.9390   159.4290 ca         1 I0S      -0.010500
     11 CAL        138.9140   133.2280   159.5930 ca         1 I0S      -0.133500
     12 CAM        138.1180   132.8940   158.5030 ca         1 I0S      -0.020300
     13 CAN        136.8350   132.1390   158.6820 c3         1 I0S      -0.057800
     14 CAO        138.5320   133.2930   157.2300 ca         1 I0S      -0.133500
     15 CAP        139.7050   134.0010   157.0480 ca         1 I0S      -0.010500
     16 CAT        146.2300   135.2660   153.8240 cc         1 I0S       0.587300
     17 CAV        148.2900   136.0160   153.6320 cd         1 I0S       0.396500
     18 CAW        149.5890   136.3920   154.2010 ca         1 I0S      -0.167500
     19 CAX        149.8300   136.2650   155.5720 ca         1 I0S      -0.044000
     20 CAY        151.0460   136.6200   156.1220 ca         1 I0S      -0.182000
     21 CAZ        152.0690   137.1200   155.3150 ca         1 I0S       0.151100
     22 CBB        154.2770   137.9730   155.1590 c3         1 I0S       0.148900
     23 CBC        151.8450   137.2520   153.9450 ca         1 I0S      -0.182000
     24 CBD        150.6200   136.8890   153.4080 ca         1 I0S      -0.044000
     25 CBE        147.9340   136.0830   152.3200 cc         1 I0S      -0.274000
     26 NAS        145.0580   134.7780   154.3560 ns         1 I0S      -0.487400
     27 NAU        147.3070   135.5460   154.4700 nd         1 I0S      -0.663000
     28 OAQ        141.8270   136.1740   156.8710 o          1 I0S      -0.537000
     29 OAR        142.5210   135.5620   159.2070 o          1 I0S      -0.537000
     30 OBA        153.2190   137.4430   155.9320 os         1 I0S      -0.339100
     31 SAI        142.0200   135.1650   157.9010 sy         1 I0S       1.198600
     32 SBF        146.3160   135.5490   152.1110 ss         1 I0S      -0.100400
     33 H1         142.2900   132.5860   154.6300 hc         1 I0S       0.048200
     34 H2         144.0230   132.3670   154.6000 hc         1 I0S       0.048200
     35 H3         142.0580   131.4390   156.7090 hc         1 I0S       0.047200
     36 H4         143.2950   130.5290   155.8640 hc         1 I0S       0.047200
     37 H5         144.1070   130.9630   158.1560 hc         1 I0S       0.056700
     38 H6         145.0480   131.9510   157.0600 hc         1 I0S       0.056700
     39 H7         144.3550   133.4510   158.8240 h1         1 I0S       0.056200
     40 H8         140.6980   134.1870   160.2930 ha         1 I0S       0.131500
     41 H9         138.6130   132.9300   160.5890 ha         1 I0S       0.117000
     42 H10        135.9780   132.8050   158.5660 hc         1 I0S       0.049367
     43 H11        136.7320   131.3500   157.9380 hc         1 I0S       0.049367
     44 H12        136.7710   131.6870   159.6710 hc         1 I0S       0.049367
     45 H13        137.9260   133.0430   156.3680 ha         1 I0S       0.117000
     46 H14        140.0050   134.2970   156.0510 ha         1 I0S       0.131500
     47 H15        149.0530   135.8830   156.2200 ha         1 I0S       0.126500
     48 H16        151.2110   136.5140   157.1870 ha         1 I0S       0.122500
     49 H17        155.0940   138.1700   155.8480 h1         1 I0S       0.040033
     50 H18        154.6220   137.2680   154.3980 h1         1 I0S       0.040033
     51 H19        153.9960   138.9090   154.6700 h1         1 I0S       0.040033
     52 H20        152.6080   137.6340   153.2810 ha         1 I0S       0.122500
     53 H21        150.4830   137.0070   152.3400 ha         1 I0S       0.126500
     54 H22        148.5120   136.4090   151.4700 h4         1 I0S       0.162000
     55 H23        144.3250   134.5710   153.6920 hn         1 I0S       0.327500
     56 H26        142.6790   134.6740   155.3600 h1         1 I0S       0.086700
     57 H27        142.7580   132.7060   158.8930 h1         1 I0S       0.056200
@<TRIPOS>BOND
     1     1     2 1   
     2     1     8 1   
     3     1    31 1   
     4     2     3 1   
     5     2     5 1   
     6     2    56 1   
     7     3     4 2   
     8     3    26 1   
     9     5     6 1   
    10     5    33 1   
    11     5    34 1   
    12     6     7 1   
    13     6    35 1   
    14     6    36 1   
    15     7     8 1   
    16     7    37 1   
    17     7    38 1   
    18     8    39 1   
    19     8    57 1   
    20     9    10 ar  
    21     9    15 ar  
    22     9    31 1   
    23    10    11 ar  
    24    10    40 1   
    25    11    12 ar  
    26    11    41 1   
    27    12    13 1   
    28    12    14 ar  
    29    13    42 1   
    30    13    43 1   
    31    13    44 1   
    32    14    15 ar  
    33    14    45 1   
    34    15    46 1   
    35    16    26 1   
    36    16    27 2   
    37    16    32 1   
    38    17    18 1   
    39    17    25 2   
    40    17    27 1   
    41    18    19 ar  
    42    18    24 ar  
    43    19    20 ar  
    44    19    47 1   
    45    20    21 ar  
    46    20    48 1   
    47    21    23 ar  
    48    21    30 1   
    49    22    30 1   
    50    22    49 1   
    51    22    50 1   
    52    22    51 1   
    53    23    24 ar  
    54    23    52 1   
    55    24    53 1   
    56    25    32 1   
    57    25    54 1   
    58    26    55 1   
    59    28    31 2   
    60    29    31 2   
@<TRIPOS>SUBSTRUCTURE
     1 I0S         1 TEMP              0 ****  ****    0 ROOT
