@<TRIPOS>MOLECULE
I0S
   57    60     1     0     0
SMALL
No Charge or Current Charge


@<TRIPOS>ATOM
      1 N          142.2850   133.9710   156.0330 n3         1 I0S      -0.781500
      2 CA         142.9140   134.3840   154.7290 c6         1 I0S       0.168500
      3 C          144.4310   134.8300   154.8040 c          1 I0S       0.595100
      4 O          144.7520   135.8570   155.3850 o          1 I0S      -0.502100
      5 CB         142.5950   133.2590   153.6790 c6         1 I0S      -0.081400
      6 CAE        142.4750   131.8290   154.2830 c6         1 I0S      -0.068400
      7 CAF        143.2880   131.6840   155.5900 c6         1 I0S      -0.088400
      8 CAG        142.8940   132.7570   156.6410 c6         1 I0S       0.236800
      9 CAJ        140.6970   134.3490   158.2010 ca         1 I0S      -0.295500
     10 CAK        141.0340   134.0340   159.5330 ca         1 I0S      -0.010500
     11 CAL        140.1110   133.3550   160.3480 ca         1 I0S      -0.133500
     12 CAM        138.8510   132.9840   159.8430 ca         1 I0S      -0.020300
     13 CAN        137.8550   132.2520   160.7290 c3         1 I0S      -0.057800
     14 CAO        138.5190   133.2990   158.5130 ca         1 I0S      -0.133500
     15 CAP        139.4370   133.9780   157.6920 ca         1 I0S      -0.010500
     16 CAT        146.7180   134.1320   154.0850 cc         1 I0S       0.587300
     17 CAV        148.7510   135.0020   154.3340 cd         1 I0S       0.396500
     18 CAW        149.7160   136.0230   154.8040 ca         1 I0S      -0.167500
     19 CAX        149.2730   137.1600   155.5200 ca         1 I0S      -0.044000
     20 CAY        150.1890   138.1280   155.9660 ca         1 I0S      -0.182000
     21 CAZ        151.5590   137.9850   155.7110 ca         1 I0S       0.151100
     22 CBB        153.8310   138.9150   155.9640 c3         1 I0S       0.148900
     23 CBC        152.0150   136.8570   154.9990 ca         1 I0S      -0.182000
     24 CBD        151.1010   135.8870   154.5510 ca         1 I0S      -0.044000
     25 CBE        149.0790   133.8630   153.6320 cc         1 I0S      -0.274000
     26 NAS        145.3540   134.0060   154.1820 ns         1 I0S      -0.487400
     27 NAU        147.3950   135.1470   154.5870 nd         1 I0S      -0.663000
     28 OAQ        141.1140   136.1910   156.3600 o          1 I0S      -0.537000
     29 OAR        143.0800   135.5560   157.8850 o          1 I0S      -0.537000
     30 OBA        152.4090   138.9690   156.1740 os         1 I0S      -0.339100
     31 SAI        141.8710   135.2010   157.1350 sy         1 I0S       1.198600
     32 SBF        147.6660   132.9220   153.2630 ss         1 I0S      -0.100400
     33 H1         141.6290   133.4970   153.2130 hc         1 I0S       0.048200
     34 H2         143.3040   133.2720   152.8400 hc         1 I0S       0.048200
     35 H3         141.4180   131.6190   154.5020 hc         1 I0S       0.047200
     36 H4         142.7910   131.0770   153.5480 hc         1 I0S       0.047200
     37 H5         143.1400   130.6820   156.0160 hc         1 I0S       0.056700
     38 H6         144.3600   131.7570   155.3710 hc         1 I0S       0.056700
     39 H7         143.7870   133.0150   157.2290 h1         1 I0S       0.056200
     40 H8         142.0050   134.3090   159.9410 ha         1 I0S       0.131500
     41 H9         140.3780   133.1180   161.3750 ha         1 I0S       0.117000
     42 H10        137.2150   132.9630   161.2650 hc         1 I0S       0.049367
     43 H11        137.2060   131.5930   160.1410 hc         1 I0S       0.049367
     44 H12        138.3650   131.6310   161.4760 hc         1 I0S       0.049367
     45 H13        137.5490   133.0180   158.1110 ha         1 I0S       0.117000
     46 H14        139.1700   134.2070   156.6610 ha         1 I0S       0.131500
     47 H15        148.2160   137.3030   155.7360 ha         1 I0S       0.126500
     48 H16        149.8320   138.9960   156.5150 ha         1 I0S       0.122500
     49 H17        154.3150   139.7920   156.4120 h1         1 I0S       0.040033
     50 H18        154.2600   138.0170   156.4260 h1         1 I0S       0.040033
     51 H19        154.0670   138.9070   154.8920 h1         1 I0S       0.040033
     52 H20        153.0700   136.7150   154.7840 ha         1 I0S       0.122500
     53 H21        151.4860   135.0290   154.0050 ha         1 I0S       0.126500
     54 H22        150.0490   133.5130   153.3080 h4         1 I0S       0.162000
     55 H23        144.9590   133.1860   153.7480 hn         1 I0S       0.327500
     56 H26        142.4140   135.2860   154.3470 h1         1 I0S       0.086700
     57 H27        142.1790   132.3000   157.3400 h1         1 I0S       0.056200
@<TRIPOS>BOND
     1     1     2 1   
     2     1     8 1   
     3     1    31 1   
     4     2     3 1   
     5     2     5 1   
     6     2    56 1   
     7     3     4 2   
     8     3    26 1   
     9     5     6 1   
    10     5    33 1   
    11     5    34 1   
    12     6     7 1   
    13     6    35 1   
    14     6    36 1   
    15     7     8 1   
    16     7    37 1   
    17     7    38 1   
    18     8    39 1   
    19     8    57 1   
    20     9    10 ar  
    21     9    15 ar  
    22     9    31 1   
    23    10    11 ar  
    24    10    40 1   
    25    11    12 ar  
    26    11    41 1   
    27    12    13 1   
    28    12    14 ar  
    29    13    42 1   
    30    13    43 1   
    31    13    44 1   
    32    14    15 ar  
    33    14    45 1   
    34    15    46 1   
    35    16    26 1   
    36    16    27 2   
    37    16    32 1   
    38    17    18 1   
    39    17    25 2   
    40    17    27 1   
    41    18    19 ar  
    42    18    24 ar  
    43    19    20 ar  
    44    19    47 1   
    45    20    21 ar  
    46    20    48 1   
    47    21    23 ar  
    48    21    30 1   
    49    22    30 1   
    50    22    49 1   
    51    22    50 1   
    52    22    51 1   
    53    23    24 ar  
    54    23    52 1   
    55    24    53 1   
    56    25    32 1   
    57    25    54 1   
    58    26    55 1   
    59    28    31 2   
    60    29    31 2   
@<TRIPOS>SUBSTRUCTURE
     1 I0S         1 TEMP              0 ****  ****    0 ROOT
