@<TRIPOS>MOLECULE
I0T
   85    89     1     0     0
SMALL
No Charge or Current Charge


@<TRIPOS>ATOM
      1 CAA         53.7350   -29.6040     5.5920 c3         1 I0T      -0.180100
      2 CAB         53.1910   -29.3510     4.1930 c          1 I0T       0.602100
      3 CAE         53.5970   -29.8330     1.7500 c3         1 I0T       0.107000
      4 CAF         52.8760   -31.1030     1.2090 c6         1 I0T      -0.093700
      5 CAG         51.5160   -31.3700     1.9150 c6         1 I0T      -0.102900
      6 CAH         50.8210   -32.6230     1.3440 c6         1 I0T       0.101100
      7 CAJ         51.9730   -32.2690    -0.8790 c6         1 I0T       0.101100
      8 CAK         52.6710   -31.0100    -0.3270 c6         1 I0T      -0.102900
      9 CAL         49.8510   -33.6650    -0.7580 c3         1 I0T       0.145900
     10 CAM         49.3410   -33.3950    -2.1600 ca         1 I0T      -0.089300
     11 CAN         50.0000   -33.9100    -3.2860 ca         1 I0T      -0.155000
     12 CAO         49.4960   -33.6360    -4.5660 ca         1 I0T       0.603300
     13 CAQ         47.7540   -32.3540    -3.7010 cp         1 I0T       0.486500
     14 CAR         48.2010   -32.6070    -2.3800 ca         1 I0T      -0.192000
     15 CAS         46.5360   -31.5210    -4.0050 cp         1 I0T      -0.158500
     16 CAT         45.8460   -31.6480    -5.2450 ca         1 I0T      -0.072000
     17 CAU         44.7110   -30.8720    -5.5330 ca         1 I0T       0.120000
     18 CAW         44.2320   -29.9460    -4.5960 ca         1 I0T      -0.061000
     19 CAX         44.8950   -29.7950    -3.3710 ca         1 I0T       0.120000
     20 CAZ         46.0310   -30.5680    -3.0770 ca         1 I0T      -0.072000
     21 CBB         49.6030   -34.3070    -6.9020 ca         1 I0T       0.014100
     22 CBC         50.3590   -34.0050    -8.0430 ca         1 I0T      -0.020000
     23 CBD         49.7630   -34.1860    -9.3010 ca         1 I0T      -0.198000
     24 CBE         48.4440   -34.6660    -9.3810 ca         1 I0T       0.605900
     25 CBG         48.2880   -34.8050    -7.0800 ca         1 I0T       0.399900
     26 CBI         47.8220   -33.7710   -11.6440 c6         1 I0T       0.185800
     27 CBJ         47.6880   -34.3330   -13.0850 c6         1 I0T       0.087600
     28 CBL         46.2860   -35.7560   -14.6870 c3         1 I0T       0.092600
     29 CBM         44.9070   -36.3680   -15.0310 c3         1 I0T       0.138600
     30 CBO         43.4960   -38.2730   -14.5260 c3         1 I0T       0.136900
     31 CBP         46.4780   -36.3470   -12.1790 c6         1 I0T       0.087600
     32 CBQ         46.6280   -35.7860   -10.7400 c6         1 I0T       0.185800
     33 NAD         53.9260   -29.9190     3.1780 ns         1 I0T      -0.519900
     34 NAI         50.6300   -32.4950    -0.1720 nx         1 I0T      -0.667000
     35 NAP         48.4040   -32.8700    -4.7650 nb         1 I0T      -0.729000
     36 NBF         47.7170   -34.9830    -8.2960 nb         1 I0T      -0.730000
     37 NBH         47.8040   -34.8620   -10.6190 nh         1 I0T      -0.777300
     38 NBK         46.4410   -35.2300   -13.2470 nx         1 I0T      -0.662000
     39 OAC         52.1810   -28.6940     3.9910 o          1 I0T      -0.599100
     40 OBA         50.1730   -34.1480    -5.6510 os         1 I0T      -0.339400
     41 OBN         44.7480   -37.6000   -14.3010 os         1 I0T      -0.471000
     42 Cl1         43.8870   -31.0660    -7.0750 cl         1 I0T      -0.170500
     43 Cl2         44.3050   -28.6260    -2.1960 cl         1 I0T      -0.170500
     44 HAC         53.8310   -30.6850     5.7450 hc         1 I0T       0.071367
     45 HAA         54.7760   -29.2680     5.6350 hc         1 I0T       0.071367
     46 HAB         53.1240   -29.1370     6.3720 hc         1 I0T       0.071367
     47 HAF         54.5320   -29.6910     1.1910 h1         1 I0T       0.071700
     48 HAE         52.9670   -28.9520     1.5660 h1         1 I0T       0.071700
     49 HAG         53.5470   -31.9500     1.4150 hc         1 I0T       0.063700
     50 HAH         51.6650   -31.5120     2.9930 hc         1 I0T       0.089700
     51 HAI         50.8550   -30.5000     1.8040 hc         1 I0T       0.089700
     52 HAK         49.8380   -32.7740     1.8040 hx         1 I0T       0.095950
     53 HAJ         51.4220   -33.5210     1.5270 hx         1 I0T       0.095950
     54 HAM         51.7820   -32.1770    -1.9540 hx         1 I0T       0.095950
     55 HAL         52.5870   -33.1610    -0.7180 hx         1 I0T       0.095950
     56 HAO         53.6390   -30.8850    -0.8320 hc         1 I0T       0.089700
     57 HAN         52.0730   -30.1220    -0.5770 hc         1 I0T       0.089700
     58 HAQ         49.0020   -33.8740    -0.1010 hx         1 I0T       0.105700
     59 HAP         50.4950   -34.5480    -0.7480 hx         1 I0T       0.105700
     60 HAR         50.8910   -34.5220    -3.1850 ha         1 I0T       0.153000
     61 HAS         47.6540   -32.2080    -1.5320 ha         1 I0T       0.133000
     62 HAT         46.1870   -32.3600    -5.9930 ha         1 I0T       0.135000
     63 HAW         43.3550   -29.3460    -4.8210 ha         1 I0T       0.161000
     64 HAZ         46.5260   -30.4070    -2.1230 ha         1 I0T       0.135000
     65 HBC         51.3800   -33.6390    -7.9530 ha         1 I0T       0.144000
     66 HBD         50.3240   -33.9720   -10.2040 ha         1 I0T       0.132000
     67 HBG         47.6770   -35.0820    -6.2220 h4         1 I0T       0.041100
     68 HBI         46.9950   -33.0690   -11.4580 h1         1 I0T       0.086200
     69 HBL         48.5640   -34.9400   -13.3310 hx         1 I0T       0.112450
     70 HBK         47.6290   -33.5190   -13.8150 hx         1 I0T       0.112450
     71 HBN         47.0610   -36.5030   -14.8740 hx         1 I0T       0.106700
     72 HBM         46.4570   -34.9210   -15.3720 hx         1 I0T       0.106700
     73 HBP         44.8620   -36.5550   -16.1120 h1         1 I0T       0.061200
     74 HBO         44.1160   -35.6510   -14.7760 h1         1 I0T       0.061200
     75 HBR         43.4480   -39.1990   -13.9390 h1         1 I0T       0.054367
     76 HBS         42.6500   -37.6390   -14.2280 h1         1 I0T       0.054367
     77 HBQ         43.3760   -38.5350   -15.5850 h1         1 I0T       0.054367
     78 HBT         45.5650   -36.9430   -12.2640 hx         1 I0T       0.112450
     79 HBU         47.3240   -36.9990   -12.4160 hx         1 I0T       0.112450
     80 HBW         45.7020   -35.2620   -10.4600 h1         1 I0T       0.086200
     81 HBV         46.7330   -36.6440   -10.0580 h1         1 I0T       0.086200
     82 HAD         54.7500   -30.4410     3.4520 hn         1 I0T       0.320500
     83 HBX         50.0450   -31.6460    -0.3390 hn         1 I0T       0.500000
     84 HBY         45.6040   -34.6360   -13.0470 hn         1 I0T       0.493000
     85 HBJ         48.7500   -33.1840   -11.5920 h1         1 I0T       0.086200
@<TRIPOS>BOND
     1     1     2 1   
     2     1    44 1   
     3     1    45 1   
     4     1    46 1   
     5     2    33 1   
     6     2    39 2   
     7     3     4 1   
     8     3    33 1   
     9     3    47 1   
    10     3    48 1   
    11     4     5 1   
    12     4     8 1   
    13     4    49 1   
    14     5     6 1   
    15     5    50 1   
    16     5    51 1   
    17     6    34 1   
    18     6    52 1   
    19     6    53 1   
    20     7     8 1   
    21     7    34 1   
    22     7    54 1   
    23     7    55 1   
    24     8    56 1   
    25     8    57 1   
    26     9    10 1   
    27     9    34 1   
    28     9    58 1   
    29     9    59 1   
    30    10    11 ar  
    31    10    14 ar  
    32    11    12 ar  
    33    11    60 1   
    34    12    35 ar  
    35    12    40 1   
    36    13    14 ar  
    37    13    15 1   
    38    13    35 ar  
    39    14    61 1   
    40    15    16 ar  
    41    15    20 ar  
    42    16    17 ar  
    43    16    62 1   
    44    17    18 ar  
    45    17    42 1   
    46    18    19 ar  
    47    18    63 1   
    48    19    20 ar  
    49    19    43 1   
    50    20    64 1   
    51    21    22 ar  
    52    21    25 ar  
    53    21    40 1   
    54    22    23 ar  
    55    22    65 1   
    56    23    24 ar  
    57    23    66 1   
    58    24    36 ar  
    59    24    37 1   
    60    25    36 ar  
    61    25    67 1   
    62    26    27 1   
    63    26    37 1   
    64    26    68 1   
    65    26    85 1   
    66    27    38 1   
    67    27    69 1   
    68    27    70 1   
    69    28    29 1   
    70    28    38 1   
    71    28    71 1   
    72    28    72 1   
    73    29    41 1   
    74    29    73 1   
    75    29    74 1   
    76    30    41 1   
    77    30    75 1   
    78    30    76 1   
    79    30    77 1   
    80    31    32 1   
    81    31    38 1   
    82    31    78 1   
    83    31    79 1   
    84    32    37 1   
    85    32    80 1   
    86    32    81 1   
    87    33    82 1   
    88    34    83 1   
    89    38    84 1   
@<TRIPOS>SUBSTRUCTURE
     1 I0T         1 TEMP              0 ****  ****    0 ROOT
