@<TRIPOS>MOLECULE
I0T
   85    89     1     0     0
SMALL
bcc


@<TRIPOS>ATOM
      1 CAA         53.4320   -29.6230     5.5640 c3         1 I0T      -0.180100
      2 CAB         52.8790   -29.3560     4.1850 c          1 I0T       0.669100
      3 CAE         53.2460   -29.7510     1.7750 c3         1 I0T       0.107000
      4 CAF         52.6920   -31.0390     1.1710 c6         1 I0T      -0.093700
      5 CAG         51.3980   -31.4880     1.8420 c6         1 I0T      -0.102900
      6 CAH         50.8350   -32.7320     1.1900 c6         1 I0T       0.129300
      7 CAJ         51.8630   -32.0960    -0.9630 c6         1 I0T       0.129300
      8 CAK         52.4410   -30.8520    -0.3210 c6         1 I0T      -0.102900
      9 CAL         49.9910   -33.7320    -0.8900 c3         1 I0T       0.174100
     10 CAM         49.5630   -33.5090    -2.3110 ca         1 I0T      -0.089300
     11 CAN         50.2000   -34.1680    -3.3420 ca         1 I0T      -0.238300
     12 CAO         49.7020   -33.9640    -4.6310 ca         1 I0T       0.668600
     13 CAQ         48.0960   -32.5130    -3.9160 cp         1 I0T       0.551800
     14 CAR         48.4840   -32.6710    -2.5950 ca         1 I0T      -0.275300
     15 CAS         46.9740   -31.6370    -4.3180 cp         1 I0T      -0.158500
     16 CAT         46.3450   -31.8550    -5.5430 ca         1 I0T      -0.090000
     17 CAU         45.2950   -31.0400    -5.9240 ca         1 I0T       0.028400
     18 CAW         44.8470   -30.0010    -5.1230 ca         1 I0T      -0.079000
     19 CAX         45.4930   -29.7940    -3.9150 ca         1 I0T       0.028400
     20 CAZ         46.5440   -30.5940    -3.5020 ca         1 I0T      -0.090000
     21 CBB         49.6920   -34.6200    -6.8690 ca         1 I0T      -0.051200
     22 CBC         50.0610   -33.7100    -7.8470 ca         1 I0T      -0.038000
     23 CBD         49.4350   -33.7520    -9.0750 ca         1 I0T      -0.281300
     24 CBE         48.4330   -34.7140    -9.2950 ca         1 I0T       0.671200
     25 CBG         48.7040   -35.5350    -7.1670 ca         1 I0T       0.465200
     26 CBI         47.7650   -33.7680   -11.4640 c6         1 I0T       0.185800
     27 CBJ         47.5400   -34.2970   -12.8650 c6         1 I0T       0.115800
     28 CBL         46.0770   -35.5830   -14.3570 c3         1 I0T       0.120800
     29 CBM         44.7280   -36.2200   -14.6080 c3         1 I0T       0.115400
     30 CBO         43.4750   -38.1760   -14.3490 c3         1 I0T       0.113700
     31 CBP         46.3370   -36.2010   -11.9370 c6         1 I0T       0.115800
     32 CBQ         46.5650   -35.6410   -10.5520 c6         1 I0T       0.185800
     33 NAD         53.5940   -29.8760     3.1690 ns         1 I0T      -0.586900
     34 NAI         50.6000   -32.5140    -0.2740 nx         1 I0T      -0.696400
     35 NAP         48.7050   -33.1670    -4.9070 nb         1 I0T      -0.729000
     36 NBF         48.0940   -35.5760    -8.3410 nb         1 I0T      -0.730000
     37 NBH         47.7730   -34.8430   -10.4990 nh         1 I0T      -0.777300
     38 NBK         46.2890   -35.1080   -12.9540 nx         1 I0T      -0.691400
     39 OAC         51.8520   -28.7120     4.0210 o          1 I0T      -0.599100
     40 OBA         50.3010   -34.6350    -5.6340 os         1 I0T      -0.339400
     41 OBN         44.7020   -37.5290   -14.1130 os         1 I0T      -0.424600
     42 CL1         44.5140   -31.3230    -7.4410 cl         1 I0T      -0.078900
     43 CL2         44.9740   -28.4930    -2.9020 cl         1 I0T      -0.078900
     44 HAC         52.7150   -30.2200     6.1280 hc         1 I0T       0.071367
     45 HAA         54.3860   -30.1470     5.5610 hc         1 I0T       0.071367
     46 HAB         53.5550   -28.6800     6.0930 hc         1 I0T       0.071367
     47 HAF         54.1380   -29.4530     1.2190 h1         1 I0T       0.071700
     48 HAE         52.5180   -28.9470     1.6690 h1         1 I0T       0.071700
     49 HAG         53.4410   -31.8310     1.3000 hc         1 I0T       0.063700
     50 HAH         51.5610   -31.7210     2.8950 hc         1 I0T       0.089700
     51 HAI         50.6560   -30.6830     1.8050 hc         1 I0T       0.089700
     52 HAK         49.8800   -33.0160     1.6290 hx         1 I0T       0.095950
     53 HAJ         51.5220   -33.5750     1.2700 hx         1 I0T       0.095950
     54 HAM         51.6280   -31.9250    -2.0110 hx         1 I0T       0.095950
     55 HAL         52.5450   -32.9440    -0.8910 hx         1 I0T       0.095950
     56 HAO         53.3690   -30.6140    -0.8450 hc         1 I0T       0.089700
     57 HAN         51.7610   -30.0090    -0.4810 hc         1 I0T       0.089700
     58 HAQ         49.1320   -34.0000    -0.2750 hx         1 I0T       0.105700
     59 HAP         50.7290   -34.5290    -0.8140 hx         1 I0T       0.105700
     60 HAR         51.0350   -34.8340    -3.1650 ha         1 I0T       0.171000
     61 HAS         47.9470   -32.1870    -1.7900 ha         1 I0T       0.151000
     62 HAT         46.6780   -32.6590    -6.1850 ha         1 I0T       0.153000
     63 HAW         44.0260   -29.3700    -5.4340 ha         1 I0T       0.179000
     64 HAZ         47.0330   -30.3810    -2.5610 ha         1 I0T       0.153000
     65 HBC         50.8300   -32.9720    -7.6560 ha         1 I0T       0.162000
     66 HBD         49.7300   -33.0400    -9.8310 ha         1 I0T       0.150000
     67 HBG         48.3880   -36.2630    -6.4260 h4         1 I0T       0.041100
     68 HBI         47.0020   -33.0170   -11.2200 h1         1 I0T       0.086200
     69 HBL         48.3590   -34.9440   -13.1780 hx         1 I0T       0.112450
     70 HBK         47.4520   -33.4690   -13.5660 hx         1 I0T       0.112450
     71 HBN         46.8920   -36.2660   -14.5970 hx         1 I0T       0.106700
     72 HBM         46.1700   -34.7010   -14.9900 hx         1 I0T       0.106700
     73 HBP         44.5730   -36.2060   -15.6950 h1         1 I0T       0.061200
     74 HBO         43.9300   -35.6020   -14.1710 h1         1 I0T       0.061200
     75 HBR         43.5460   -39.1820   -13.9380 h1         1 I0T       0.054367
     76 HBS         42.6390   -37.6590   -13.8640 h1         1 I0T       0.054367
     77 HBQ         43.2540   -38.2520   -15.4190 h1         1 I0T       0.054367
     78 HBT         45.3960   -36.7410   -11.9660 hx         1 I0T       0.112450
     79 HBU         47.1440   -36.8710   -12.2330 hx         1 I0T       0.112450
     80 HBW         45.6900   -35.0560   -10.2360 h1         1 I0T       0.086200
     81 HBV         46.6470   -36.4840    -9.8730 h1         1 I0T       0.086200
     82 HAD         54.4240   -30.4030     3.3880 hn         1 I0T       0.320500
     83 HBX         49.9280   -31.7450    -0.3600 hn         1 I0T       0.444800
     84 HBY         45.5030   -34.4930   -12.7200 hn         1 I0T       0.437800
     85 HBJ         48.7230   -33.2550   -11.4940 h1         1 I0T       0.086200
@<TRIPOS>BOND
     1     1     2 1   
     2     1    44 1   
     3     1    45 1   
     4     1    46 1   
     5     2    33 1   
     6     2    39 2   
     7     3     4 1   
     8     3    33 1   
     9     3    47 1   
    10     3    48 1   
    11     4     5 1   
    12     4     8 1   
    13     4    49 1   
    14     5     6 1   
    15     5    50 1   
    16     5    51 1   
    17     6    34 1   
    18     6    52 1   
    19     6    53 1   
    20     7     8 1   
    21     7    34 1   
    22     7    54 1   
    23     7    55 1   
    24     8    56 1   
    25     8    57 1   
    26     9    10 1   
    27     9    34 1   
    28     9    58 1   
    29     9    59 1   
    30    10    11 ar  
    31    10    14 ar  
    32    11    12 ar  
    33    11    60 1   
    34    12    35 ar  
    35    12    40 1   
    36    13    14 ar  
    37    13    15 1   
    38    13    35 ar  
    39    14    61 1   
    40    15    16 ar  
    41    15    20 ar  
    42    16    17 ar  
    43    16    62 1   
    44    17    18 ar  
    45    17    42 1   
    46    18    19 ar  
    47    18    63 1   
    48    19    20 ar  
    49    19    43 1   
    50    20    64 1   
    51    21    22 ar  
    52    21    25 ar  
    53    21    40 1   
    54    22    23 ar  
    55    22    65 1   
    56    23    24 ar  
    57    23    66 1   
    58    24    36 ar  
    59    24    37 1   
    60    25    36 ar  
    61    25    67 1   
    62    26    27 1   
    63    26    37 1   
    64    26    68 1   
    65    26    85 1   
    66    27    38 1   
    67    27    69 1   
    68    27    70 1   
    69    28    29 1   
    70    28    38 1   
    71    28    71 1   
    72    28    72 1   
    73    29    41 1   
    74    29    73 1   
    75    29    74 1   
    76    30    41 1   
    77    30    75 1   
    78    30    76 1   
    79    30    77 1   
    80    31    32 1   
    81    31    38 1   
    82    31    78 1   
    83    31    79 1   
    84    32    37 1   
    85    32    80 1   
    86    32    81 1   
    87    33    82 1   
    88    34    83 1   
    89    38    84 1   
@<TRIPOS>SUBSTRUCTURE
     1 I0T         1 TEMP              0 ****  ****    0 ROOT
