@<TRIPOS>MOLECULE
I0U
   54    57     1     0     0
SMALL
No Charge or Current Charge


@<TRIPOS>ATOM
      1 C17         40.8170    18.7110    10.7150 c6         1 I0U      -0.117700
      2 C26         37.0080    21.4210     7.6420 ca         1 I0U      -0.020000
      3 C28         36.8620    22.6170     8.3750 ca         1 I0U      -0.031900
      4 C05         42.4490    16.1040    12.4410 c          1 I0U       0.597100
      5 O06         42.1000    15.0930    13.0350 o          1 I0U      -0.604100
      6 N07         41.7220    17.3130    12.5680 n          1 I0U      -0.407800
      7 C08         40.4560    17.3930    13.3430 c6         1 I0U       0.089000
      8 C11         39.2510    17.5640    12.3860 c6         1 I0U      -0.100400
      9 C14         39.4480    18.7850    11.4530 c6         1 I0U      -0.070400
     10 C19         41.0630    19.9580     9.8140 c3         1 I0U       0.089600
     11 N22         40.1250    20.1050     8.6740 na         1 I0U      -0.181600
     12 C23         39.7310    19.1610     7.6890 cc         1 I0U       0.498100
     13 N24         38.5140    19.4790     7.1970 nd         1 I0U      -0.573100
     14 C25         38.1730    20.6630     7.8300 ca         1 I0U       0.069400
     15 C30         37.8720    23.0360     9.2700 ca         1 I0U      -0.073000
     16 C32         39.0340    22.2550     9.4440 ca         1 I0U      -0.112000
     17 C34         39.1420    21.0620     8.7050 ca         1 I0U      -0.068200
     18 C35         40.4980    17.9970     7.2550 cc         1 I0U      -0.247600
     19 C36         41.8680    17.7210     7.6090 cc         1 I0U      -0.088000
     20 C38         42.4970    16.5820     7.1500 cd         1 I0U      -0.210400
     21 C39         43.9330    16.2430     7.4950 c3         1 I0U      -0.033900
     22 C43         41.7930    15.6090     6.2670 c          1 I0U       0.542200
     23 O44         42.3250    14.5860     5.8510 o          1 I0U      -0.549000
     24 N45         40.4650    15.9490     5.9310 n          1 I0U      -0.267000
     25 C46         39.7160    15.0280     5.0440 c3         1 I0U       0.075300
     26 C50         39.8550    17.1080     6.4090 cd         1 I0U       0.019600
     27 C52         41.9640    18.5250    11.7400 c6         1 I0U       0.104000
     28 H18         40.8070    17.8280    10.0650 hc         1 I0U       0.068700
     29 H27         36.2420    21.0950     6.9440 ha         1 I0U       0.146000
     30 H03         44.2050    15.1000    11.5850 hc         1 I0U       0.063033
     31 H04         43.4380    16.3640    10.5470 hc         1 I0U       0.063033
     32 H02         44.3840    16.8770    11.8830 hc         1 I0U       0.063033
     33 H10         40.3110    16.4980    13.9630 h1         1 I0U       0.065700
     34 H09         40.5070    18.2540    14.0260 h1         1 I0U       0.065700
     35 H12         39.1330    16.6530    11.7830 hc         1 I0U       0.054200
     36 H13         38.3260    17.6780    12.9660 hc         1 I0U       0.054200
     37 H16         38.6240    18.8280    10.7280 hc         1 I0U       0.048200
     38 H15         39.3920    19.7110    12.0440 hc         1 I0U       0.048200
     39 H21         40.9900    20.8380    10.4620 h1         1 I0U       0.060700
     40 H20         42.0920    19.9700     9.4420 h1         1 I0U       0.060700
     41 H31         37.7550    23.9630     9.8270 ha         1 I0U       0.131000
     42 H33         39.8110    22.5830    10.1280 ha         1 I0U       0.120000
     43 H37         42.4380    18.4110     8.2140 ha         1 I0U       0.187000
     44 H42         44.5460    16.1540     6.5900 hc         1 I0U       0.049033
     45 H41         44.3920    17.0130     8.1260 hc         1 I0U       0.049033
     46 H40         43.9950    15.2930     8.0380 hc         1 I0U       0.049033
     47 H49         38.7050    15.4070     4.8470 h1         1 I0U       0.061367
     48 H48         40.2440    14.9240     4.0880 h1         1 I0U       0.061367
     49 H47         39.6360    14.0420     5.5190 h1         1 I0U       0.061367
     50 H51         38.8300    17.2260     6.0660 h4         1 I0U       0.220000
     51 H54         42.0090    19.4020    12.4020 h1         1 I0U       0.053200
     52 H53         42.9260    18.4770    11.2150 h1         1 I0U       0.053200
     53 Br29        35.2920    23.6850     8.1480 br         1 I0U      -0.110100
     54 C01         43.7060    16.0750    11.5690 c3         1 I0U      -0.176100
@<TRIPOS>BOND
     1     1     9 1   
     2     1    10 1   
     3     1    27 1   
     4     1    28 1   
     5     2     3 ar  
     6     2    14 ar  
     7     2    29 1   
     8     3    15 ar  
     9     3    53 1   
    10     4     5 2   
    11     4     6 1   
    12     4    54 1   
    13     6     7 1   
    14     6    27 1   
    15     7     8 1   
    16     7    33 1   
    17     7    34 1   
    18     8     9 1   
    19     8    35 1   
    20     8    36 1   
    21     9    37 1   
    22     9    38 1   
    23    10    11 1   
    24    10    39 1   
    25    10    40 1   
    26    11    12 1   
    27    11    17 1   
    28    12    13 2   
    29    12    18 1   
    30    13    14 1   
    31    14    17 ar  
    32    15    16 ar  
    33    15    41 1   
    34    16    17 ar  
    35    16    42 1   
    36    18    19 1   
    37    18    26 2   
    38    19    20 2   
    39    19    43 1   
    40    20    21 1   
    41    20    22 1   
    42    21    44 1   
    43    21    45 1   
    44    21    46 1   
    45    22    23 2   
    46    22    24 1   
    47    24    25 1   
    48    24    26 1   
    49    25    47 1   
    50    25    48 1   
    51    25    49 1   
    52    26    50 1   
    53    27    51 1   
    54    27    52 1   
    55    30    54 1   
    56    31    54 1   
    57    32    54 1   
@<TRIPOS>SUBSTRUCTURE
     1 I0U         1 TEMP              0 ****  ****    0 ROOT
