@<TRIPOS>MOLECULE
I0U
   54    57     1     0     0
SMALL
abcg2


@<TRIPOS>ATOM
      1 C17         40.7110    18.6400    10.6260 c6         1 I0U      -0.117700
      2 C26         37.2500    21.7340     7.3510 ca         1 I0U      -0.020000
      3 C28         37.0190    22.7900     8.2140 ca         1 I0U      -0.031900
      4 C05         42.0440    15.7930    11.8990 c          1 I0U       0.597100
      5 O06         41.6310    14.7540    12.4260 o          1 I0U      -0.604100
      6 N07         41.5620    17.0130    12.2430 n          1 I0U      -0.407800
      7 C08         40.3850    17.1320    13.1050 c6         1 I0U       0.089000
      8 C11         39.1620    17.5100    12.2680 c6         1 I0U      -0.100400
      9 C14         39.4240    18.7720    11.4430 c6         1 I0U      -0.070400
     10 C19         41.0570    19.9070     9.8490 c3         1 I0U       0.089600
     11 N22         40.1080    20.1730     8.7690 na         1 I0U      -0.181600
     12 C23         39.8500    19.3780     7.6710 cc         1 I0U       0.498100
     13 N24         38.8020    19.7910     6.9810 nd         1 I0U      -0.573100
     14 C25         38.3330    20.9050     7.6490 ca         1 I0U       0.069400
     15 C30         37.8090    23.0430     9.3430 ca         1 I0U      -0.073000
     16 C32         38.8890    22.2230     9.6400 ca         1 I0U      -0.112000
     17 C34         39.1410    21.1600     8.7780 ca         1 I0U      -0.068200
     18 C35         40.6290    18.1820     7.3420 cc         1 I0U      -0.247600
     19 C36         42.0480    18.1430     7.3600 cc         1 I0U      -0.088000
     20 C38         42.7370    16.9970     7.0970 cd         1 I0U      -0.210400
     21 C39         44.2310    16.9260     7.1200 c3         1 I0U      -0.033900
     22 C43         42.0220    15.7800     6.7790 c          1 I0U       0.542200
     23 O44         42.5600    14.6930     6.5390 o          1 I0U      -0.549000
     24 N45         40.6270    15.8830     6.7460 n          1 I0U      -0.267000
     25 C46         39.8790    14.6670     6.4220 c3         1 I0U       0.075300
     26 C50         39.9660    17.0320     7.0200 cd         1 I0U       0.019600
     27 C52         41.8790    18.2460    11.5320 c6         1 I0U       0.104000
     28 H18         40.5840    17.8250     9.9080 hc         1 I0U       0.068700
     29 H27         36.6250    21.5530     6.4870 ha         1 I0U       0.146000
     30 H03         43.4140    14.6970    10.7080 hc         1 I0U       0.063033
     31 H04         42.7560    16.1250     9.8870 hc         1 I0U       0.063033
     32 H02         43.9980    16.3210    11.1210 hc         1 I0U       0.063033
     33 H10         40.2400    16.1890    13.6210 h1         1 I0U       0.065700
     34 H09         40.5880    17.9090    13.8480 h1         1 I0U       0.065700
     35 H12         38.9230    16.6760    11.6010 hc         1 I0U       0.054200
     36 H13         38.3030    17.6570    12.9270 hc         1 I0U       0.054200
     37 H16         38.5780    18.9740    10.7830 hc         1 I0U       0.048200
     38 H15         39.5210    19.6340    12.1140 hc         1 I0U       0.048200
     39 H21         41.0470    20.7730    10.5090 h1         1 I0U       0.060700
     40 H20         42.0600    19.8380     9.4340 h1         1 I0U       0.060700
     41 H31         37.5770    23.8800     9.9860 ha         1 I0U       0.131000
     42 H33         39.4980    22.4150    10.5120 ha         1 I0U       0.120000
     43 H37         42.6040    19.0480     7.5690 ha         1 I0U       0.187000
     44 H42         44.6240    16.6050     6.1520 hc         1 I0U       0.049033
     45 H41         44.6590    17.8960     7.3710 hc         1 I0U       0.049033
     46 H40         44.5700    16.1920     7.8560 hc         1 I0U       0.049033
     47 H49         38.8190    14.9010     6.4200 h1         1 I0U       0.061367
     48 H48         40.1810    14.3000     5.4430 h1         1 I0U       0.061367
     49 H47         40.0890    13.8970     7.1630 h1         1 I0U       0.061367
     50 H51         38.8880    16.9820     6.9900 h4         1 I0U       0.220000
     51 H54         42.0600    19.0300    12.2740 h1         1 I0U       0.053200
     52 H53         42.7900    18.1280    10.9540 h1         1 I0U       0.053200
     53 BR29        35.5440    23.9680     7.8590 br         1 I0U      -0.110100
     54 C01         43.1220    15.7350    10.8380 c3         1 I0U      -0.176100
@<TRIPOS>BOND
     1     1     9 1   
     2     1    10 1   
     3     1    27 1   
     4     1    28 1   
     5     2     3 ar  
     6     2    14 ar  
     7     2    29 1   
     8     3    15 ar  
     9     3    53 1   
    10     4     5 2   
    11     4     6 1   
    12     4    54 1   
    13     6     7 1   
    14     6    27 1   
    15     7     8 1   
    16     7    33 1   
    17     7    34 1   
    18     8     9 1   
    19     8    35 1   
    20     8    36 1   
    21     9    37 1   
    22     9    38 1   
    23    10    11 1   
    24    10    39 1   
    25    10    40 1   
    26    11    12 1   
    27    11    17 1   
    28    12    13 2   
    29    12    18 1   
    30    13    14 1   
    31    14    17 ar  
    32    15    16 ar  
    33    15    41 1   
    34    16    17 ar  
    35    16    42 1   
    36    18    19 1   
    37    18    26 2   
    38    19    20 2   
    39    19    43 1   
    40    20    21 1   
    41    20    22 1   
    42    21    44 1   
    43    21    45 1   
    44    21    46 1   
    45    22    23 2   
    46    22    24 1   
    47    24    25 1   
    48    24    26 1   
    49    25    47 1   
    50    25    48 1   
    51    25    49 1   
    52    26    50 1   
    53    27    51 1   
    54    27    52 1   
    55    30    54 1   
    56    31    54 1   
    57    32    54 1   
@<TRIPOS>SUBSTRUCTURE
     1 I0U         1 TEMP              0 ****  ****    0 ROOT
