@<TRIPOS>MOLECULE
I0V
   72    75     1     0     0
SMALL
No Charge or Current Charge


@<TRIPOS>ATOM
      1 C10        -33.4820     2.4610    25.5240 ca         1 I0V      -0.091300
      2 C13        -32.4330     2.6210    22.8990 ca         1 I0V      -0.076300
      3 C15        -31.4460     4.1480    21.1250 c3         1 I0V       0.158800
      4 C20        -34.3350     2.6940    24.4270 ca         1 I0V      -0.097000
      5 C21        -33.9170     0.0450    31.4950 ca         1 I0V      -0.148000
      6 C22        -32.8220    -0.1310    30.6360 ca         1 I0V      -0.071000
      7 C24        -31.7060    -0.0340    28.3440 c6         1 I0V      -0.019400
      8 C26        -30.0720    -1.6740    27.2990 c6         1 I0V      -0.033100
      9 C28        -27.8920    -0.6990    26.4460 ca         1 I0V      -0.201000
     10 C01        -37.4690     1.1690    31.4870 c3         1 I0V       0.148900
     11 C03        -35.1360     0.5280    31.0020 ca         1 I0V       0.142100
     12 C04        -35.2550     0.8370    29.6340 ca         1 I0V      -0.225000
     13 C05        -34.1660     0.6640    28.7630 ca         1 I0V       0.285000
     14 C07        -35.1800     0.1280    26.5450 c3         1 I0V       0.184800
     15 C08        -34.3620    -0.9000    25.7430 c3         1 I0V      -0.093100
     16 C09        -34.0500     2.3680    26.9400 c3         1 I0V       0.234100
     17 C11        -32.0990     2.3230    25.2970 ca         1 I0V      -0.097000
     18 C12        -31.5780     2.4000    23.9950 ca         1 I0V      -0.110000
     19 C14        -31.8670     2.7100    21.4880 c3         1 I0V      -0.035100
     20 C18        -31.4880     6.5240    19.0740 c3         1 I0V      -0.130100
     21 C19        -33.8140     2.7720    23.1230 ca         1 I0V      -0.110000
     22 C23        -32.9310     0.1710    29.2620 ca         1 I0V      -0.096300
     23 C25        -31.1470    -1.4750    28.3930 c6         1 I0V      -0.064400
     24 C27        -29.0660    -0.5190    27.2030 ca         1 I0V      -0.032300
     25 C29        -26.9610     0.3440    26.3230 ca         1 I0V       0.131100
     26 C31        -27.1950     1.5740    26.9520 ca         1 I0V      -0.140000
     27 C32        -28.3640     1.7660    27.7060 ca         1 I0V      -0.076000
     28 C33        -29.3060     0.7270    27.8330 ca         1 I0V      -0.110300
     29 C34        -30.5690     0.9650    28.6700 c6         1 I0V      -0.020100
     30 N06        -34.3490     0.9940    27.4050 nh         1 I0V      -0.785400
     31 N16        -30.9010     4.2000    19.7500 n7         1 I0V      -0.866400
     32 O30        -25.8260     0.1630    25.5900 oh         1 I0V      -0.540100
     33 H1         -30.6910     4.4870    21.8470 h1         1 I0V       0.033700
     34 H2         -32.3200     4.8050    21.2220 h1         1 I0V       0.033700
     35 H3         -29.8180     5.3710    18.3550 h1         1 I0V       0.051200
     36 H4         -29.6440     5.9010    20.0350 h1         1 I0V       0.051200
     37 H5         -35.4050     2.8110    24.5840 ha         1 I0V       0.116500
     38 H6         -33.8200    -0.1920    32.5510 ha         1 I0V       0.128000
     39 H7         -31.8850    -0.5030    31.0450 ha         1 I0V       0.116000
     40 H8         -31.9990     0.1430    27.3030 hc         1 I0V       0.081700
     41 H9         -30.5690    -1.7840    26.3250 hc         1 I0V       0.050200
     42 H10        -29.5430    -2.6200    27.4780 hc         1 I0V       0.050200
     43 H11        -27.7110    -1.6520    25.9550 ha         1 I0V       0.110000
     44 H12        -38.1470     1.2130    32.3480 h1         1 I0V       0.041033
     45 H13        -37.3900     2.1790    31.0650 h1         1 I0V       0.041033
     46 H14        -37.9170     0.5070    30.7350 h1         1 I0V       0.041033
     47 H15        -36.1860     1.2160    29.2250 ha         1 I0V       0.118000
     48 H16        -35.7680     0.7390    25.8480 h1         1 I0V       0.032200
     49 H17        -35.9040    -0.4170    27.1650 h1         1 I0V       0.032200
     50 H18        -35.0260    -1.5130    25.1230 hc         1 I0V       0.040367
     51 H19        -33.6430    -0.3980    25.0850 hc         1 I0V       0.040367
     52 H20        -33.8100    -1.5650    26.4180 hc         1 I0V       0.040367
     53 H21        -33.3270     2.8310    27.6250 h1         1 I0V       0.041700
     54 H22        -34.9650     2.9740    26.9960 h1         1 I0V       0.041700
     55 H23        -31.4240     2.1550    26.1310 ha         1 I0V       0.116500
     56 H24        -30.5070     2.2880    23.8390 ha         1 I0V       0.113000
     57 H25        -32.6100     2.3570    20.7620 hc         1 I0V       0.052700
     58 H26        -31.0000     2.0460    21.3890 hc         1 I0V       0.052700
     59 H27        -31.0720     7.4550    18.6700 hc         1 I0V       0.036367
     60 H28        -32.2240     6.1420    18.3580 hc         1 I0V       0.036367
     61 H29        -32.0020     6.7670    20.0110 hc         1 I0V       0.036367
     62 H30        -34.4870     2.9500    22.2870 ha         1 I0V       0.113000
     63 H31        -31.9580    -2.2030    28.2500 hc         1 I0V       0.044200
     64 H32        -30.7080    -1.6820    29.3780 hc         1 I0V       0.044200
     65 H33        -26.4720     2.3790    26.8560 ha         1 I0V       0.129000
     66 H34        -28.5380     2.7230    28.1930 ha         1 I0V       0.113000
     67 H35        -30.3020     0.8930    29.7330 hc         1 I0V       0.047700
     68 H36        -30.9330     1.9900    28.5180 hc         1 I0V       0.047700
     69 H37        -31.6360     3.9100    19.0930 hn         1 I0V       0.403000
     70 H39        -25.8340    -0.7500    25.2310 ho         1 I0V       0.460000
     71 O02        -36.1780     0.6820    31.8930 os         1 I0V      -0.350100
     72 C17        -30.3600     5.5000    19.3030 c3         1 I0V       0.156800
@<TRIPOS>BOND
     1     1     4 ar  
     2     1    16 1   
     3     1    17 ar  
     4     2    18 ar  
     5     2    19 1   
     6     2    21 ar  
     7     3    19 1   
     8     3    31 1   
     9     3    33 1   
    10     3    34 1   
    11     4    21 ar  
    12     4    37 1   
    13     5     6 ar  
    14     5    11 ar  
    15     5    38 1   
    16     6    22 ar  
    17     6    39 1   
    18     7    22 1   
    19     7    23 1   
    20     7    29 1   
    21     7    40 1   
    22     8    23 1   
    23     8    24 1   
    24     8    41 1   
    25     8    42 1   
    26     9    24 ar  
    27     9    25 ar  
    28     9    43 1   
    29    10    44 1   
    30    10    45 1   
    31    10    46 1   
    32    10    71 1   
    33    11    12 ar  
    34    11    71 1   
    35    12    13 ar  
    36    12    47 1   
    37    13    22 ar  
    38    13    30 1   
    39    14    15 1   
    40    14    30 1   
    41    14    48 1   
    42    14    49 1   
    43    15    50 1   
    44    15    51 1   
    45    15    52 1   
    46    16    30 1   
    47    16    53 1   
    48    16    54 1   
    49    17    18 ar  
    50    17    55 1   
    51    18    56 1   
    52    19    57 1   
    53    19    58 1   
    54    20    59 1   
    55    20    60 1   
    56    20    61 1   
    57    20    72 1   
    58    21    62 1   
    59    23    63 1   
    60    23    64 1   
    61    24    28 ar  
    62    25    26 ar  
    63    25    32 1   
    64    26    27 ar  
    65    26    65 1   
    66    27    28 ar  
    67    27    66 1   
    68    28    29 1   
    69    29    67 1   
    70    29    68 1   
    71    31    69 1   
    72    31    72 1   
    73    32    70 1   
    74    35    72 1   
    75    36    72 1   
@<TRIPOS>SUBSTRUCTURE
     1 I0V         1 TEMP              0 ****  ****    0 ROOT
