@<TRIPOS>MOLECULE
I0V
   72    75     1     0     0
SMALL
abcg2


@<TRIPOS>ATOM
      1 C10        -33.4580     2.2470    25.4070 ca         1 I0V      -0.091300
      2 C13        -32.5860     2.5070    22.7320 ca         1 I0V      -0.076300
      3 C15        -31.3790     4.0390    21.1450 c3         1 I0V       0.158800
      4 C20        -34.2900     2.7920    24.4320 ca         1 I0V      -0.097000
      5 C21        -33.8340     0.1610    31.4050 ca         1 I0V      -0.148000
      6 C22        -32.7280     0.0110    30.5870 ca         1 I0V      -0.071000
      7 C24        -31.5810    -0.0160    28.3340 c6         1 I0V      -0.019400
      8 C26        -29.7680    -1.5320    27.5030 c6         1 I0V      -0.033100
      9 C28        -27.8380    -0.4160    26.3550 ca         1 I0V      -0.201000
     10 C01        -37.3980     0.9300    31.1670 c3         1 I0V       0.148900
     11 C03        -35.0690     0.4830    30.8390 ca         1 I0V       0.142100
     12 C04        -35.1690     0.6580    29.4640 ca         1 I0V      -0.225000
     13 C05        -34.0450     0.5030    28.6420 ca         1 I0V       0.285000
     14 C07        -35.3340     0.1330    26.5840 c3         1 I0V       0.184800
     15 C08        -35.4150    -1.3770    26.7550 c3         1 I0V      -0.093100
     16 C09        -33.9200     2.1050    26.8360 c3         1 I0V       0.234100
     17 C11        -32.1790     1.8340    25.0250 ca         1 I0V      -0.097000
     18 C12        -31.7500     1.9650    23.7120 ca         1 I0V      -0.110000
     19 C14        -32.0940     2.6970    21.3220 c3         1 I0V      -0.035100
     20 C18        -30.8880     6.7310    19.7070 c3         1 I0V      -0.130100
     21 C19        -33.8610     2.9170    23.1130 ca         1 I0V      -0.110000
     22 C23        -32.8010     0.1680    29.1990 ca         1 I0V      -0.096300
     23 C25        -30.8080    -1.3120    28.6010 c6         1 I0V      -0.064400
     24 C27        -28.9760    -0.2900    27.1550 ca         1 I0V      -0.032300
     25 C29        -27.1030     0.7000    25.9750 ca         1 I0V       0.131100
     26 C31        -27.5040     1.9680    26.3910 ca         1 I0V      -0.140000
     27 C32        -28.6330     2.0900    27.1850 ca         1 I0V      -0.076000
     28 C33        -29.3810     0.9790    27.5840 ca         1 I0V      -0.110300
     29 C34        -30.6010     1.1600    28.4550 c6         1 I0V      -0.020100
     30 N06        -34.1520     0.7040    27.2290 nh         1 I0V      -0.785400
     31 N16        -30.8820     4.1910    19.7810 n7         1 I0V      -0.866400
     32 O30        -25.9820     0.6100    25.1930 oh         1 I0V      -0.540100
     33 H1         -30.5220     4.0860    21.8240 h1         1 I0V       0.033700
     34 H2         -32.0670     4.8410    21.4480 h1         1 I0V       0.033700
     35 H3         -29.7120     5.3630    18.5320 h1         1 I0V       0.051200
     36 H4         -29.2610     5.4080    20.2280 h1         1 I0V       0.051200
     37 H5         -35.2880     3.1150    24.7050 ha         1 I0V       0.116500
     38 H6         -33.7600     0.0260    32.4770 ha         1 I0V       0.128000
     39 H7         -31.7780    -0.2460    31.0390 ha         1 I0V       0.116000
     40 H8         -31.9330    -0.0560    27.3030 hc         1 I0V       0.081700
     41 H9         -30.2780    -1.8750    26.5960 hc         1 I0V       0.050200
     42 H10        -29.0800    -2.3340    27.7840 hc         1 I0V       0.050200
     43 H11        -27.5210    -1.4010    26.0230 ha         1 I0V       0.110000
     44 H12        -38.0770     0.9670    32.0150 h1         1 I0V       0.041033
     45 H13        -37.3860     1.9010    30.6660 h1         1 I0V       0.041033
     46 H14        -37.7310     0.1630    30.4640 h1         1 I0V       0.041033
     47 H15        -36.1140     0.9190    29.0150 ha         1 I0V       0.118000
     48 H16        -35.2550     0.3690    25.5220 h1         1 I0V       0.032200
     49 H17        -36.2640     0.6070    26.9340 h1         1 I0V       0.032200
     50 H18        -36.2790    -1.7680    26.2140 hc         1 I0V       0.040367
     51 H19        -34.5160    -1.8550    26.3620 hc         1 I0V       0.040367
     52 H20        -35.5190    -1.6590    27.8040 hc         1 I0V       0.040367
     53 H21        -33.1600     2.5090    27.5040 h1         1 I0V       0.041700
     54 H22        -34.8300     2.7060    26.9860 h1         1 I0V       0.041700
     55 H23        -31.5090     1.4130    25.7620 ha         1 I0V       0.116500
     56 H24        -30.7510     1.6440    23.4400 ha         1 I0V       0.113000
     57 H25        -32.9400     2.6550    20.6280 hc         1 I0V       0.052700
     58 H26        -31.4060     1.8940    21.0500 hc         1 I0V       0.052700
     59 H27        -30.2460     7.5810    19.4620 hc         1 I0V       0.036367
     60 H28        -31.7500     6.7550    19.0350 hc         1 I0V       0.036367
     61 H29        -31.2470     6.8670    20.7290 hc         1 I0V       0.036367
     62 H30        -34.5290     3.3390    22.3710 ha         1 I0V       0.113000
     63 H31        -31.4920    -2.1620    28.6350 hc         1 I0V       0.044200
     64 H32        -30.3150    -1.2550    29.5770 hc         1 I0V       0.044200
     65 H33        -26.9350     2.8370    26.0880 ha         1 I0V       0.129000
     66 H34        -28.9500     3.0770    27.5030 ha         1 I0V       0.113000
     67 H35        -30.3000     1.2520    29.5050 hc         1 I0V       0.047700
     68 H36        -31.0960     2.0990    28.1990 hc         1 I0V       0.047700
     69 H37        -31.6690     4.1640    19.1380 hn         1 I0V       0.403000
     70 H39        -25.8140    -0.3160    24.9700 ho         1 I0V       0.460000
     71 O02        -36.1160     0.6130    31.7050 os         1 I0V      -0.350100
     72 C17        -30.1170     5.4180    19.5460 c3         1 I0V       0.156800
@<TRIPOS>BOND
     1     1     4 ar  
     2     1    16 1   
     3     1    17 ar  
     4     2    18 ar  
     5     2    19 1   
     6     2    21 ar  
     7     3    19 1   
     8     3    31 1   
     9     3    33 1   
    10     3    34 1   
    11     4    21 ar  
    12     4    37 1   
    13     5     6 ar  
    14     5    11 ar  
    15     5    38 1   
    16     6    22 ar  
    17     6    39 1   
    18     7    22 1   
    19     7    23 1   
    20     7    29 1   
    21     7    40 1   
    22     8    23 1   
    23     8    24 1   
    24     8    41 1   
    25     8    42 1   
    26     9    24 ar  
    27     9    25 ar  
    28     9    43 1   
    29    10    44 1   
    30    10    45 1   
    31    10    46 1   
    32    10    71 1   
    33    11    12 ar  
    34    11    71 1   
    35    12    13 ar  
    36    12    47 1   
    37    13    22 ar  
    38    13    30 1   
    39    14    15 1   
    40    14    30 1   
    41    14    48 1   
    42    14    49 1   
    43    15    50 1   
    44    15    51 1   
    45    15    52 1   
    46    16    30 1   
    47    16    53 1   
    48    16    54 1   
    49    17    18 ar  
    50    17    55 1   
    51    18    56 1   
    52    19    57 1   
    53    19    58 1   
    54    20    59 1   
    55    20    60 1   
    56    20    61 1   
    57    20    72 1   
    58    21    62 1   
    59    23    63 1   
    60    23    64 1   
    61    24    28 ar  
    62    25    26 ar  
    63    25    32 1   
    64    26    27 ar  
    65    26    65 1   
    66    27    28 ar  
    67    27    66 1   
    68    28    29 1   
    69    29    67 1   
    70    29    68 1   
    71    31    69 1   
    72    31    72 1   
    73    32    70 1   
    74    35    72 1   
    75    36    72 1   
@<TRIPOS>SUBSTRUCTURE
     1 I0V         1 TEMP              0 ****  ****    0 ROOT
