@<TRIPOS>MOLECULE
I0W
   83    87     1     0     0
SMALL
bcc


@<TRIPOS>ATOM
      1 CAA         54.4170   -29.7550     5.1810 c3         1 I0W      -0.181100
      2 CAB         53.5380   -29.3680     4.0160 c          1 I0W       0.669100
      3 CAE         53.2970   -29.5080     1.5620 c3         1 I0W       0.106000
      4 CAF         52.6680   -30.7700     0.9810 c6         1 I0W      -0.093700
      5 CAG         51.5880   -31.3540     1.8850 c6         1 I0W      -0.102400
      6 CAH         50.9560   -32.5830     1.2690 c6         1 I0W       0.127800
      7 CAJ         51.4240   -31.7180    -0.9950 c6         1 I0W       0.127800
      8 CAK         52.0600   -30.4840    -0.3880 c6         1 I0W      -0.102400
      9 CAL         49.7270   -33.5160    -0.6330 c3         1 I0W       0.177100
     10 CAM         49.2020   -33.3450    -2.0280 ca         1 I0W      -0.091300
     11 CAN         49.8160   -34.0060    -3.0700 ca         1 I0W      -0.246300
     12 CAO         49.2550   -33.8590    -4.3400 ca         1 I0W       0.674600
     13 CAQ         47.6270   -32.4530    -3.5910 cp         1 I0W       0.551800
     14 CAR         48.0770   -32.5600    -2.2840 ca         1 I0W      -0.278300
     15 CAS         46.4630   -31.6170    -3.9620 cp         1 I0W      -0.160500
     16 CAT         46.0390   -30.5720    -3.1450 ca         1 I0W      -0.090000
     17 CAU         44.9520   -29.8050    -3.5280 ca         1 I0W       0.026900
     18 CAW         44.2670   -30.0450    -4.7080 ca         1 I0W      -0.081000
     19 CAX         44.7100   -31.0840    -5.5110 ca         1 I0W       0.026900
     20 CAZ         45.7930   -31.8680    -5.1590 ca         1 I0W      -0.090000
     21 CBB         49.2500   -34.5670    -6.5780 ca         1 I0W      -0.074200
     22 CBC         49.3970   -33.5390    -7.4980 ca         1 I0W      -0.042000
     23 CBD         48.8150   -33.6630    -8.7410 ca         1 I0W      -0.287300
     24 CBE         48.0900   -34.8320    -9.0410 ca         1 I0W       0.682200
     25 CBG         48.5170   -35.6740    -6.9470 ca         1 I0W       0.470200
     26 CBI         47.3070   -33.9560   -11.1960 c6         1 I0W       0.181800
     27 CBJ         47.2040   -34.4580   -12.6200 c6         1 I0W       0.110800
     28 CBL         46.0020   -35.9370   -14.1880 c3         1 I0W       0.153800
     29 CBM         44.7720   -36.7870   -14.4190 c3         1 I0W      -0.262400
     30 CBN         44.5480   -37.1170   -15.9160 c          1 I0W       0.944600
     31 CBQ         46.3980   -36.5970   -11.8080 c6         1 I0W       0.110800
     32 CBR         46.4980   -36.0820   -10.3900 c6         1 I0W       0.181800
     33 NAD         53.9900   -29.7450     2.8050 ns         1 I0W      -0.586900
     34 NAI         50.3800   -32.2850    -0.0850 nx         1 I0W      -0.696400
     35 NAP         48.2130   -33.1130    -4.5930 nb         1 I0W      -0.722000
     36 NBF         47.9560   -35.8000    -8.1410 nb         1 I0W      -0.728000
     37 NBH         47.5120   -35.0520   -10.2750 nh         1 I0W      -0.769300
     38 NBK         46.1340   -35.4830   -12.7630 nx         1 I0W      -0.699400
     39 OAC         52.4950   -28.7510     4.1810 o          1 I0W      -0.597100
     40 OBA         49.8520   -34.5330    -5.3410 os         1 I0W      -0.341400
     41 OBO         45.3970   -36.6900   -16.7210 o          1 I0W      -0.786300
     42 OBP         43.5310   -37.7870   -16.1660 o          1 I0W      -0.786300
     43 CL1         44.4390   -28.5020    -2.5140 cl         1 I0W      -0.075900
     44 CL2         43.8840   -31.4020    -6.9960 cl         1 I0W      -0.075900
     45 HAA         53.8380   -30.3550     5.8830 hc         1 I0W       0.070033
     46 HAB         55.3030   -30.3190     4.8960 hc         1 I0W       0.070033
     47 HAC         54.7330   -28.8560     5.7100 hc         1 I0W       0.070033
     48 HAF         54.0040   -29.0930     0.8390 h1         1 I0W       0.072200
     49 HAE         52.5300   -28.7510     1.7300 h1         1 I0W       0.072200
     50 HAG         53.4560   -31.5230     0.8530 hc         1 I0W       0.061700
     51 HAH         51.9970   -31.6520     2.8510 hc         1 I0W       0.088700
     52 HAI         50.8180   -30.6010     2.0810 hc         1 I0W       0.088700
     53 HAK         50.1450   -32.9710     1.8830 hx         1 I0W       0.096700
     54 HAJ         51.6910   -33.3750     1.1170 hx         1 I0W       0.096700
     55 HAM         50.9470   -31.4840    -1.9440 hx         1 I0W       0.096700
     56 HAL         52.1570   -32.5100    -1.1570 hx         1 I0W       0.096700
     57 HAO         52.8220   -30.1330    -1.0870 hc         1 I0W       0.088700
     58 HAN         51.3140   -29.6870    -0.3060 hc         1 I0W       0.088700
     59 HAQ         48.9220   -33.7720     0.0560 hx         1 I0W       0.103200
     60 HAP         50.4740   -34.3060    -0.5980 hx         1 I0W       0.103200
     61 HAR         50.6870   -34.6290    -2.9160 ha         1 I0W       0.167000
     62 HAS         47.5630   -32.0700    -1.4680 ha         1 I0W       0.149000
     63 HAT         46.5580   -30.3300    -2.2280 ha         1 I0W       0.153500
     64 HAW         43.4190   -29.4390    -4.9960 ha         1 I0W       0.178000
     65 HAZ         46.1210   -32.6720    -5.8030 ha         1 I0W       0.153500
     66 HBC         49.9610   -32.6490    -7.2510 ha         1 I0W       0.153000
     67 HBD         48.9320   -32.8550    -9.4470 ha         1 I0W       0.151000
     68 HBG         48.3790   -36.4970    -6.2520 h4         1 I0W       0.038100
     69 HBJ         48.1510   -33.2720   -11.1850 h1         1 I0W       0.077450
     70 HBI         46.4110   -33.3760   -10.9360 h1         1 I0W       0.077450
     71 HBL         48.1340   -34.9250   -12.9420 hx         1 I0W       0.109700
     72 HBK         46.9680   -33.6340   -13.2910 hx         1 I0W       0.109700
     73 HBN         46.9250   -36.4630   -14.4320 hx         1 I0W       0.096700
     74 HBM         45.9610   -35.0290   -14.7870 hx         1 I0W       0.096700
     75 HBO         43.8840   -36.2720   -14.0380 hc         1 I0W       0.041200
     76 HBP         44.8330   -37.7330   -13.8740 hc         1 I0W       0.041200
     77 HBQ         45.5840   -37.3130   -11.8810 hx         1 I0W       0.109700
     78 HBR         47.3250   -37.0740   -12.1310 hx         1 I0W       0.109700
     79 HBT         45.5180   -35.7070   -10.0640 h1         1 I0W       0.077450
     80 HBS         46.7510   -36.9220    -9.7510 h1         1 I0W       0.077450
     81 HAD         54.8580   -30.2540     2.7540 hn         1 I0W       0.318500
     82 HBU         49.6560   -31.5710     0.0420 hn         1 I0W       0.443800
     83 HBV         45.2440   -35.0480   -12.5030 hn         1 I0W       0.430800
@<TRIPOS>BOND
     1     1     2 1   
     2     1    45 1   
     3     1    46 1   
     4     1    47 1   
     5     2    33 1   
     6     2    39 2   
     7     3     4 1   
     8     3    33 1   
     9     3    48 1   
    10     3    49 1   
    11     4     5 1   
    12     4     8 1   
    13     4    50 1   
    14     5     6 1   
    15     5    51 1   
    16     5    52 1   
    17     6    34 1   
    18     6    53 1   
    19     6    54 1   
    20     7     8 1   
    21     7    34 1   
    22     7    55 1   
    23     7    56 1   
    24     8    57 1   
    25     8    58 1   
    26     9    10 1   
    27     9    34 1   
    28     9    59 1   
    29     9    60 1   
    30    10    11 ar  
    31    10    14 ar  
    32    11    12 ar  
    33    11    61 1   
    34    12    35 ar  
    35    12    40 1   
    36    13    14 ar  
    37    13    15 1   
    38    13    35 ar  
    39    14    62 1   
    40    15    16 ar  
    41    15    20 ar  
    42    16    17 ar  
    43    16    63 1   
    44    17    18 ar  
    45    17    43 1   
    46    18    19 ar  
    47    18    64 1   
    48    19    20 ar  
    49    19    44 1   
    50    20    65 1   
    51    21    22 ar  
    52    21    25 ar  
    53    21    40 1   
    54    22    23 ar  
    55    22    66 1   
    56    23    24 ar  
    57    23    67 1   
    58    24    36 ar  
    59    24    37 1   
    60    25    36 ar  
    61    25    68 1   
    62    26    27 1   
    63    26    37 1   
    64    26    69 1   
    65    26    70 1   
    66    27    38 1   
    67    27    71 1   
    68    27    72 1   
    69    28    29 1   
    70    28    38 1   
    71    28    73 1   
    72    28    74 1   
    73    29    30 1   
    74    29    75 1   
    75    29    76 1   
    76    30    41 1   
    77    30    42 1   
    78    31    32 1   
    79    31    38 1   
    80    31    77 1   
    81    31    78 1   
    82    32    37 1   
    83    32    79 1   
    84    32    80 1   
    85    33    81 1   
    86    34    82 1   
    87    38    83 1   
@<TRIPOS>SUBSTRUCTURE
     1 I0W         1 TEMP              0 ****  ****    0 ROOT
