@<TRIPOS>MOLECULE
I0W
   83    87     1     0     0
SMALL
No Charge or Current Charge


@<TRIPOS>ATOM
      1 CAA         53.8390   -29.2660     5.4740 c3         1 I0W      -0.181100
      2 CAB         53.1970   -29.0550     4.1110 c          1 I0W       0.602100
      3 CAE         53.5040   -29.4870     1.6440 c3         1 I0W       0.106000
      4 CAF         52.8720   -30.8140     1.1320 c6         1 I0W      -0.093700
      5 CAG         51.5840   -31.2080     1.9100 c6         1 I0W      -0.102400
      6 CAH         50.9740   -32.5160     1.3660 c6         1 I0W       0.099600
      7 CAJ         51.9610   -32.0480    -0.9140 c6         1 I0W       0.099600
      8 CAK         52.5720   -30.7330    -0.3890 c6         1 I0W      -0.102400
      9 CAL         49.9840   -33.6300    -0.6880 c3         1 I0W       0.148900
     10 CAM         49.3730   -33.3990    -2.0560 ca         1 I0W      -0.091300
     11 CAN         50.0080   -33.8460    -3.2240 ca         1 I0W      -0.163000
     12 CAO         49.4090   -33.6100    -4.4690 ca         1 I0W       0.609300
     13 CAQ         47.6140   -32.4940    -3.4940 cp         1 I0W       0.486500
     14 CAR         48.1560   -32.7140    -2.2030 ca         1 I0W      -0.195000
     15 CAS         46.3120   -31.7710    -3.7190 cp         1 I0W      -0.160500
     16 CAT         45.7790   -30.8720    -2.7520 ca         1 I0W      -0.072000
     17 CAU         44.5640   -30.2010    -2.9730 ca         1 I0W       0.118500
     18 CAW         43.8470   -30.4030    -4.1600 ca         1 I0W      -0.063000
     19 CAX         44.3510   -31.2780    -5.1330 ca         1 I0W       0.118500
     20 CAZ         45.5650   -31.9510    -4.9180 ca         1 I0W      -0.072000
     21 CBB         49.4420   -34.2650    -6.8140 ca         1 I0W      -0.008900
     22 CBC         50.1040   -33.9000    -7.9950 ca         1 I0W      -0.024000
     23 CBD         49.4550   -34.1340    -9.2180 ca         1 I0W      -0.204000
     24 CBE         48.1800   -34.7260    -9.2250 ca         1 I0W       0.616900
     25 CBG         48.1680   -34.8750    -6.9190 ca         1 I0W       0.404900
     26 CBI         47.3580   -33.8900   -11.4440 c6         1 I0W       0.181800
     27 CBJ         47.1950   -34.4600   -12.8790 c6         1 I0W       0.082600
     28 CBL         45.8330   -35.9930   -14.3910 c3         1 I0W       0.125600
     29 CBM         44.5170   -36.7640   -14.5550 c3         1 I0W      -0.262400
     30 CBN         44.3810   -37.1670   -16.0220 c          1 I0W       0.734000
     31 CBQ         46.2210   -36.5740   -11.9190 c6         1 I0W       0.082600
     32 CBR         46.3980   -36.0010   -10.4870 c6         1 I0W       0.181800
     33 NAD         53.9210   -29.5500     3.0500 ns         1 I0W      -0.519900
     34 NAI         50.6860   -32.3980    -0.1350 nx         1 I0W      -0.667000
     35 NAP         48.2440   -32.9430    -4.5980 nb         1 I0W      -0.722000
     36 NBF         47.5470   -35.1040    -8.1010 nb         1 I0W      -0.728000
     37 NBH         47.4920   -34.9780   -10.4260 nh         1 I0W      -0.769300
     38 NBK         46.0270   -35.4630   -12.9750 nx         1 I0W      -0.670000
     39 OAC         52.1220   -28.4910     3.9730 o          1 I0W      -0.597100
     40 OBA         50.0670   -34.0550    -5.5970 os         1 I0W      -0.341400
     41 OBO         44.8740   -38.2280   -16.3690 o          1 I0W      -0.681000
     42 OBP         43.8500   -36.3740   -16.7830 o          1 I0W      -0.681000
     43 Cl1         43.9420   -29.0960    -1.7530 cl         1 I0W      -0.167500
     44 Cl2         43.4600   -31.5350    -6.6270 cl         1 I0W      -0.167500
     45 HAA         53.2350   -28.8600     6.2920 hc         1 I0W       0.070033
     46 HAB         54.0400   -30.3350     5.6110 hc         1 I0W       0.070033
     47 HAC         54.8470   -28.8380     5.4630 hc         1 I0W       0.070033
     48 HAF         54.3900   -29.2580     1.0360 h1         1 I0W       0.072200
     49 HAE         52.7880   -28.6660     1.5050 h1         1 I0W       0.072200
     50 HAG         53.6270   -31.5980     1.2910 hc         1 I0W       0.061700
     51 HAH         51.8060   -31.3400     2.9770 hc         1 I0W       0.088700
     52 HAI         50.8420   -30.4010     1.8450 hc         1 I0W       0.088700
     53 HAK         50.0360   -32.7580     1.8790 hx         1 I0W       0.096700
     54 HAJ         51.6630   -33.3560     1.5070 hx         1 I0W       0.096700
     55 HAM         51.7020   -31.9680    -1.9760 hx         1 I0W       0.096700
     56 HAL         52.6620   -32.8810    -0.7970 hx         1 I0W       0.096700
     57 HAO         53.4950   -30.5180    -0.9470 hc         1 I0W       0.088700
     58 HAN         51.8840   -29.9020    -0.5970 hc         1 I0W       0.088700
     59 HAQ         49.1970   -33.9190     0.0140 hx         1 I0W       0.103200
     60 HAP         50.7060   -34.4510    -0.7250 hx         1 I0W       0.103200
     61 HAR         50.9540   -34.3770    -3.1790 ha         1 I0W       0.149000
     62 HAS         47.6270   -32.3700    -1.3210 ha         1 I0W       0.131000
     63 HAT         46.3120   -30.6730    -1.8270 ha         1 I0W       0.135500
     64 HAW         42.9090   -29.8830    -4.3280 ha         1 I0W       0.160000
     65 HAZ         45.9240   -32.6260    -5.6920 ha         1 I0W       0.135500
     66 HBC         51.0930   -33.4460    -7.9620 ha         1 I0W       0.135000
     67 HBD         49.9440   -33.8730   -10.1500 ha         1 I0W       0.133000
     68 HBG         47.6320   -35.2030    -6.0290 h4         1 I0W       0.038100
     69 HBJ         48.2320   -33.2230   -11.4390 h1         1 I0W       0.077450
     70 HBI         46.4820   -33.2660   -11.2100 h1         1 I0W       0.077450
     71 HBL         48.1070   -34.9870   -13.1780 hx         1 I0W       0.109700
     72 HBK         47.0210   -33.6550   -13.6000 hx         1 I0W       0.109700
     73 HBN         46.6760   -36.6400   -14.6470 hx         1 I0W       0.096700
     74 HBM         45.8330   -35.1450   -15.0820 hx         1 I0W       0.096700
     75 HBO         43.7180   -36.0700   -14.2690 hc         1 I0W       0.041200
     76 HBP         44.5910   -37.6540   -13.9200 hc         1 I0W       0.041200
     77 HBQ         45.3600   -37.2490   -11.9610 hx         1 I0W       0.109700
     78 HBR         47.1090   -37.1460   -12.2040 hx         1 I0W       0.109700
     79 HBT         45.4460   -35.5580   -10.1570 h1         1 I0W       0.077450
     80 HBS         46.6130   -36.8450    -9.8150 h1         1 I0W       0.077450
     81 HAD         54.8020   -29.9980     3.2730 hn         1 I0W       0.318500
     82 HBU         50.0180   -31.6060    -0.2610 hn         1 I0W       0.499000
     83 HBV         45.1540   -34.9460   -12.7280 hn         1 I0W       0.486000
@<TRIPOS>BOND
     1     1     2 1   
     2     1    45 1   
     3     1    46 1   
     4     1    47 1   
     5     2    33 1   
     6     2    39 2   
     7     3     4 1   
     8     3    33 1   
     9     3    48 1   
    10     3    49 1   
    11     4     5 1   
    12     4     8 1   
    13     4    50 1   
    14     5     6 1   
    15     5    51 1   
    16     5    52 1   
    17     6    34 1   
    18     6    53 1   
    19     6    54 1   
    20     7     8 1   
    21     7    34 1   
    22     7    55 1   
    23     7    56 1   
    24     8    57 1   
    25     8    58 1   
    26     9    10 1   
    27     9    34 1   
    28     9    59 1   
    29     9    60 1   
    30    10    11 ar  
    31    10    14 ar  
    32    11    12 ar  
    33    11    61 1   
    34    12    35 ar  
    35    12    40 1   
    36    13    14 ar  
    37    13    15 1   
    38    13    35 ar  
    39    14    62 1   
    40    15    16 ar  
    41    15    20 ar  
    42    16    17 ar  
    43    16    63 1   
    44    17    18 ar  
    45    17    43 1   
    46    18    19 ar  
    47    18    64 1   
    48    19    20 ar  
    49    19    44 1   
    50    20    65 1   
    51    21    22 ar  
    52    21    25 ar  
    53    21    40 1   
    54    22    23 ar  
    55    22    66 1   
    56    23    24 ar  
    57    23    67 1   
    58    24    36 ar  
    59    24    37 1   
    60    25    36 ar  
    61    25    68 1   
    62    26    27 1   
    63    26    37 1   
    64    26    69 1   
    65    26    70 1   
    66    27    38 1   
    67    27    71 1   
    68    27    72 1   
    69    28    29 1   
    70    28    38 1   
    71    28    73 1   
    72    28    74 1   
    73    29    30 1   
    74    29    75 1   
    75    29    76 1   
    76    30    41 1   
    77    30    42 1   
    78    31    32 1   
    79    31    38 1   
    80    31    77 1   
    81    31    78 1   
    82    32    37 1   
    83    32    79 1   
    84    32    80 1   
    85    33    81 1   
    86    34    82 1   
    87    38    83 1   
@<TRIPOS>SUBSTRUCTURE
     1 I0W         1 TEMP              0 ****  ****    0 ROOT
