@<TRIPOS>MOLECULE
I0X
   74    76     1     0     0
SMALL
abcg2


@<TRIPOS>ATOM
      1 C10         -2.4140     0.6730     0.2930 c          1 I0X       0.642100
      2 O2          -2.1350     1.2740     1.3080 o          1 I0X      -0.541000
      3 O3          -3.4640     0.9630    -0.4830 os         1 I0X      -0.456100
      4 C11         -4.3400     1.9960    -0.0220 c3         1 I0X       0.230900
      5 C12         -5.4850     2.0590    -0.9870 ca         1 I0X      -0.099300
      6 C13         -6.5320     1.1450    -0.8910 ca         1 I0X      -0.085000
      7 C14         -7.5860     1.1830    -1.7920 ca         1 I0X      -0.115500
      8 C15         -7.6030     2.1380    -2.8020 ca         1 I0X      -0.099000
      9 C16         -6.5620     3.0520    -2.9050 ca         1 I0X      -0.115500
     10 C17         -5.5080     3.0090    -2.0020 ca         1 I0X      -0.085000
     11 N1          -1.7080    -0.3490    -0.2340 ns         1 I0X      -0.480900
     12 C1          -0.7080    -1.0560     0.5160 c3         1 I0X       0.045700
     13 C2           0.4120    -1.4940    -0.4160 c          1 I0X       0.598100
     14 O1           0.2020    -1.7960    -1.5790 o          1 I0X      -0.598100
     15 C3          -1.2930    -2.3140     1.2000 c3         1 I0X      -0.056100
     16 C4          -2.4380    -1.9540     2.0990 ca         1 I0X      -0.085300
     17 C9          -3.7460    -1.9680     1.6210 ca         1 I0X      -0.098500
     18 C5          -2.2090    -1.5320     3.4060 ca         1 I0X      -0.098500
     19 C6          -4.8010    -1.5590     2.4270 ca         1 I0X      -0.107500
     20 C7          -3.2600    -1.1300     4.2170 ca         1 I0X      -0.107500
     21 C8          -4.5610    -1.1370     3.7270 ca         1 I0X      -0.106000
     22 N2           1.6240    -1.5720     0.1560 ns         1 I0X      -0.479900
     23 C18          4.3620    -0.5250     0.3830 ca         1 I0X      -0.123300
     24 C19          4.9580     2.2300     0.5180 ca         1 I0X       0.164100
     25 C20          4.0190    -1.9860     0.2920 c3         1 I0X      -0.029100
     26 C23          6.3660     4.5900    -1.1910 c3         1 I0X      -0.107433
     27 C22          5.1100     5.8480     0.5510 c3         1 I0X      -0.107433
     28 C21          3.8470     4.4490    -1.0800 c3         1 I0X      -0.107433
     29 C24          5.1400     4.5700    -0.2810 c3         1 I0X       0.204000
     30 C26          2.4600    -3.7300    -0.6130 c2         1 I0X       0.595300
     31 C25          2.7220    -2.2280    -0.4950 c3         1 I0X       0.032700
     32 C27          4.8100     0.1740    -0.7330 ca         1 I0X      -0.073500
     33 C28          4.2270     0.1810     1.5730 ca         1 I0X      -0.073500
     34 C29          5.1090     1.5280    -0.6780 ca         1 I0X      -0.162500
     35 C30          4.5130     1.5350     1.6430 ca         1 I0X      -0.162500
     36 O5           1.6670    -4.3090     0.1060 o          1 I0X      -0.585300
     37 C31          3.2540    -4.3820    -1.6210 ce         1 I0X       0.023700
     38 N3           3.1310    -5.6750    -1.7400 n1         1 I0X      -0.284700
     39 N4           2.9970    -6.7800    -1.8100 n1         1 I0X       0.019000
     40 H10         -4.6940     1.7610     0.9840 h1         1 I0X       0.056200
     41 H11         -3.8130     2.9510     0.0180 h1         1 I0X       0.056200
     42 H13         -6.5280     0.4030    -0.1010 ha         1 I0X       0.114000
     43 H14         -8.3970     0.4720    -1.7050 ha         1 I0X       0.113500
     44 H15         -8.4270     2.1720    -3.5030 ha         1 I0X       0.113000
     45 H16         -6.5710     3.7990    -3.6880 ha         1 I0X       0.113500
     46 H17         -4.7000     3.7250    -2.0860 ha         1 I0X       0.114000
     47 H1          -2.0720    -0.8080    -1.0570 hn         1 I0X       0.339500
     48 H2          -0.3150    -0.3850     1.2810 h1         1 I0X       0.092700
     49 H3          -1.6260    -3.0070     0.4230 hc         1 I0X       0.066700
     50 H4          -0.5010    -2.8180     1.7580 hc         1 I0X       0.066700
     51 H9          -3.9450    -2.3020     0.6100 ha         1 I0X       0.110000
     52 H5          -1.1960    -1.5150     3.7930 ha         1 I0X       0.110000
     53 H6          -5.8120    -1.5780     2.0400 ha         1 I0X       0.110500
     54 H7          -3.0640    -0.8090     5.2320 ha         1 I0X       0.110500
     55 H8          -5.3830    -0.8230     4.3580 ha         1 I0X       0.111000
     56 H12          1.7080    -1.3690     1.1410 hn         1 I0X       0.322500
     57 H18          4.8270    -2.5340    -0.1960 hc         1 I0X       0.058200
     58 H19          3.9140    -2.4130     1.2930 hc         1 I0X       0.058200
     59 H26          6.4110     3.7400    -1.8700 hc         1 I0X       0.046589
     60 H27          6.3450     5.4910    -1.8060 hc         1 I0X       0.046589
     61 H28          7.2860     4.6090    -0.6050 hc         1 I0X       0.046589
     62 H23          6.0090     5.9380     1.1630 hc         1 I0X       0.046589
     63 H24          5.0600     6.7210    -0.1000 hc         1 I0X       0.046589
     64 H25          4.2400     5.8680     1.2090 hc         1 I0X       0.046589
     65 H20          2.9770     4.4170    -0.4210 hc         1 I0X       0.046589
     66 H21          3.7440     5.3220    -1.7260 hc         1 I0X       0.046589
     67 H22          3.8200     3.5700    -1.7220 hc         1 I0X       0.046589
     68 H29          2.8450    -1.8180    -1.5020 h1         1 I0X       0.090700
     69 H30          4.9400    -0.3450    -1.6770 ha         1 I0X       0.107500
     70 H31          3.8870    -0.3290     2.4670 ha         1 I0X       0.107500
     71 H32          5.4690     2.0070    -1.5760 ha         1 I0X       0.122500
     72 H33          4.3920     2.0660     2.5790 ha         1 I0X       0.122500
     73 H34          3.9390    -3.8990    -2.3000 h4         1 I0X       0.243000
     74 O4           5.2520     3.5310     0.7170 os         1 I0X      -0.374100
@<TRIPOS>BOND
     1     1     2 2   
     2     1     3 1   
     3     1    11 1   
     4     3     4 1   
     5     4     5 1   
     6     4    40 1   
     7     4    41 1   
     8     5     6 ar  
     9     5    10 ar  
    10     6     7 ar  
    11     6    42 1   
    12     7     8 ar  
    13     7    43 1   
    14     8     9 ar  
    15     8    44 1   
    16     9    10 ar  
    17     9    45 1   
    18    10    46 1   
    19    11    12 1   
    20    11    47 1   
    21    12    13 1   
    22    12    15 1   
    23    12    48 1   
    24    13    14 2   
    25    13    22 1   
    26    15    16 1   
    27    15    49 1   
    28    15    50 1   
    29    16    17 ar  
    30    16    18 ar  
    31    17    19 ar  
    32    17    51 1   
    33    18    20 ar  
    34    18    52 1   
    35    19    21 ar  
    36    19    53 1   
    37    20    21 ar  
    38    20    54 1   
    39    21    55 1   
    40    22    31 1   
    41    22    56 1   
    42    23    25 1   
    43    23    32 ar  
    44    23    33 ar  
    45    24    34 ar  
    46    24    35 ar  
    47    24    74 1   
    48    25    31 1   
    49    25    57 1   
    50    25    58 1   
    51    26    29 1   
    52    26    59 1   
    53    26    60 1   
    54    26    61 1   
    55    27    29 1   
    56    27    62 1   
    57    27    63 1   
    58    27    64 1   
    59    28    29 1   
    60    28    65 1   
    61    28    66 1   
    62    28    67 1   
    63    29    74 1   
    64    30    31 1   
    65    30    36 1   
    66    30    37 2   
    67    31    68 1   
    68    32    34 ar  
    69    32    69 1   
    70    33    35 ar  
    71    33    70 1   
    72    34    71 1   
    73    35    72 1   
    74    37    38 1   
    75    37    73 1   
    76    38    39 3   
@<TRIPOS>SUBSTRUCTURE
     1 I0X         1 TEMP              0 ****  ****    0 ROOT
