@<TRIPOS>MOLECULE
I0X
   74    76     1     0     0
SMALL
No Charge or Current Charge


@<TRIPOS>ATOM
      1 C10         -2.5450     0.6280    -0.0470 c          1 I0X       0.642100
      2 O2          -2.2140     1.4880     0.7540 o          1 I0X      -0.541000
      3 O3          -3.6400     0.6680    -0.8510 os         1 I0X      -0.456100
      4 C11         -4.5150     1.8000    -0.7200 c3         1 I0X       0.230900
      5 C12         -5.6790     1.6220    -1.6860 ca         1 I0X      -0.099300
      6 C13         -6.8230     0.8990    -1.2940 ca         1 I0X      -0.085000
      7 C14         -7.8980     0.7340    -2.1850 ca         1 I0X      -0.115500
      8 C15         -7.8360     1.2910    -3.4730 ca         1 I0X      -0.099000
      9 C16         -6.6970     2.0110    -3.8710 ca         1 I0X      -0.115500
     10 C17         -5.6210     2.1760    -2.9810 ca         1 I0X      -0.085000
     11 N1          -1.8500    -0.5170    -0.3090 ns         1 I0X      -0.480900
     12 C1          -0.6290    -0.9570     0.4040 c3         1 I0X       0.045700
     13 C2           0.3660    -1.6270    -0.5840 c          1 I0X       0.598100
     14 O1           0.0650    -1.9600    -1.7240 o          1 I0X      -0.598100
     15 C3          -0.9820    -1.9040     1.5830 c3         1 I0X      -0.056100
     16 C4          -1.9490    -1.2870     2.5880 ca         1 I0X      -0.085300
     17 C9          -3.3240    -1.5890     2.5340 ca         1 I0X      -0.098500
     18 C5          -1.4740    -0.4010     3.5750 ca         1 I0X      -0.098500
     19 C6          -4.2150    -1.0100     3.4540 ca         1 I0X      -0.107500
     20 C7          -2.3650     0.1770     4.4970 ca         1 I0X      -0.107500
     21 C8          -3.7350    -0.1270     4.4370 ca         1 I0X      -0.106000
     22 N2           1.6390    -1.8270    -0.0950 ns         1 I0X      -0.479900
     23 C18          4.3240    -0.6870     0.1910 ca         1 I0X      -0.123300
     24 C19          4.6940     2.0490     0.8380 ca         1 I0X       0.164100
     25 C20          4.1070    -2.1560    -0.1610 c3         1 I0X      -0.029100
     26 C23          6.4230     4.4500    -0.2940 c3         1 I0X      -0.107433
     27 C22          5.1580     5.6810     1.5090 c3         1 I0X      -0.107433
     28 C21          3.8390     4.7980    -0.4520 c3         1 I0X      -0.107433
     29 C24          5.0700     4.5470     0.4600 c3         1 I0X       0.204000
     30 C26          2.5230    -3.8870    -1.2250 c2         1 I0X       0.595300
     31 C25          2.7540    -2.4060    -0.8770 c3         1 I0X       0.032700
     32 C27          4.5410     0.2620    -0.8250 ca         1 I0X      -0.073500
     33 C28          4.2980    -0.2630     1.5320 ca         1 I0X      -0.073500
     34 C29          4.7240     1.6200    -0.5080 ca         1 I0X      -0.162500
     35 C30          4.4820     1.0940     1.8460 ca         1 I0X      -0.162500
     36 O5           2.6140    -4.7290    -0.3200 o          1 I0X      -0.585300
     37 C31          2.2160    -4.2510    -2.4980 ce         1 I0X       0.023700
     38 N3           2.0080    -5.5150    -2.8370 n1         1 I0X      -0.284700
     39 N4           1.8120    -6.5850    -3.1700 n1         1 I0X       0.019000
     40 H10         -4.9010     1.8760     0.3060 h1         1 I0X       0.056200
     41 H11         -3.9840     2.7330    -0.9500 h1         1 I0X       0.056200
     42 H13         -6.8780     0.4620    -0.2990 ha         1 I0X       0.114000
     43 H14         -8.7790     0.1750    -1.8760 ha         1 I0X       0.113500
     44 H15         -8.6680     1.1640    -4.1630 ha         1 I0X       0.113000
     45 H16         -6.6470     2.4410    -4.8690 ha         1 I0X       0.113500
     46 H17         -4.7420     2.7330    -3.2980 ha         1 I0X       0.114000
     47 H1          -2.2270    -1.1050    -1.0420 hn         1 I0X       0.339500
     48 H2          -0.1200    -0.0710     0.8070 h1         1 I0X       0.092700
     49 H3          -1.4030    -2.8320     1.1780 hc         1 I0X       0.066700
     50 H4          -0.0600    -2.1980     2.1010 hc         1 I0X       0.066700
     51 H9          -3.7050    -2.2680     1.7740 ha         1 I0X       0.110000
     52 H5          -0.4160    -0.1560     3.6260 ha         1 I0X       0.110000
     53 H6          -5.2750    -1.2450     3.4060 ha         1 I0X       0.110500
     54 H7          -1.9930     0.8620     5.2560 ha         1 I0X       0.110500
     55 H8          -4.4240     0.3210     5.1490 ha         1 I0X       0.111000
     56 H12          1.8250    -1.5140     0.8520 hn         1 I0X       0.322500
     57 H18          4.9230    -2.5060    -0.8060 hc         1 I0X       0.058200
     58 H19          4.1550    -2.7720     0.7460 hc         1 I0X       0.058200
     59 H26          6.3760     3.8030    -1.1730 hc         1 I0X       0.046589
     60 H27          6.7330     5.4400    -0.6470 hc         1 I0X       0.046589
     61 H28          7.2090     4.0700     0.3700 hc         1 I0X       0.046589
     62 H23          5.9910     5.5080     2.2020 hc         1 I0X       0.046589
     63 H24          5.3180     6.6520     1.0240 hc         1 I0X       0.046589
     64 H25          4.2340     5.7440     2.0960 hc         1 I0X       0.046589
     65 H20          2.9070     4.6600     0.1090 hc         1 I0X       0.046589
     66 H21          3.8520     5.8270    -0.8320 hc         1 I0X       0.046589
     67 H22          3.8150     4.1410    -1.3250 hc         1 I0X       0.046589
     68 H29          2.7960    -1.8480    -1.8230 h1         1 I0X       0.090700
     69 H30          4.5660    -0.0510    -1.8660 ha         1 I0X       0.107500
     70 H31          4.1340    -0.9810     2.3330 ha         1 I0X       0.107500
     71 H32          4.8850     2.3040    -1.3280 ha         1 I0X       0.122500
     72 H33          4.4580     1.4110     2.8860 ha         1 I0X       0.122500
     73 H34          2.1190    -3.5160    -3.2990 h4         1 I0X       0.243000
     74 O4           4.8600     3.3600     1.2650 os         1 I0X      -0.374100
@<TRIPOS>BOND
     1     1     2 2   
     2     1     3 1   
     3     1    11 1   
     4     3     4 1   
     5     4     5 1   
     6     4    40 1   
     7     4    41 1   
     8     5     6 ar  
     9     5    10 ar  
    10     6     7 ar  
    11     6    42 1   
    12     7     8 ar  
    13     7    43 1   
    14     8     9 ar  
    15     8    44 1   
    16     9    10 ar  
    17     9    45 1   
    18    10    46 1   
    19    11    12 1   
    20    11    47 1   
    21    12    13 1   
    22    12    15 1   
    23    12    48 1   
    24    13    14 2   
    25    13    22 1   
    26    15    16 1   
    27    15    49 1   
    28    15    50 1   
    29    16    17 ar  
    30    16    18 ar  
    31    17    19 ar  
    32    17    51 1   
    33    18    20 ar  
    34    18    52 1   
    35    19    21 ar  
    36    19    53 1   
    37    20    21 ar  
    38    20    54 1   
    39    21    55 1   
    40    22    31 1   
    41    22    56 1   
    42    23    25 1   
    43    23    32 ar  
    44    23    33 ar  
    45    24    34 ar  
    46    24    35 ar  
    47    24    74 1   
    48    25    31 1   
    49    25    57 1   
    50    25    58 1   
    51    26    29 1   
    52    26    59 1   
    53    26    60 1   
    54    26    61 1   
    55    27    29 1   
    56    27    62 1   
    57    27    63 1   
    58    27    64 1   
    59    28    29 1   
    60    28    65 1   
    61    28    66 1   
    62    28    67 1   
    63    29    74 1   
    64    30    31 1   
    65    30    36 1   
    66    30    37 2   
    67    31    68 1   
    68    32    34 ar  
    69    32    69 1   
    70    33    35 ar  
    71    33    70 1   
    72    34    71 1   
    73    35    72 1   
    74    37    38 1   
    75    37    73 1   
    76    38    39 3   
@<TRIPOS>SUBSTRUCTURE
     1 I0X         1 TEMP              0 ****  ****    0 ROOT
