@<TRIPOS>MOLECULE
I0Y
   75    77     1     0     0
SMALL
abcg2


@<TRIPOS>ATOM
      1 C1          -2.4320     0.5700     0.2500 c          1 I0Y       0.642100
      2 O1          -2.0740     1.1800     1.2340 o          1 I0Y      -0.540000
      3 O2          -3.5160     0.8760    -0.4690 os         1 I0Y      -0.456100
      4 C2          -4.3400     1.9380     0.0240 c3         1 I0Y       0.230900
      5 C3          -5.5200     2.0310    -0.8950 ca         1 I0Y      -0.099300
      6 C8          -6.5990     1.1650    -0.7400 ca         1 I0Y      -0.085000
      7 C7          -7.6840     1.2260    -1.6030 ca         1 I0Y      -0.115500
      8 C6          -7.6980     2.1580    -2.6340 ca         1 I0Y      -0.098000
      9 C5          -6.6260     3.0250    -2.7960 ca         1 I0Y      -0.115500
     10 C4          -5.5420     2.9590    -1.9310 ca         1 I0Y      -0.085000
     11 N1          -1.7900    -0.4840    -0.2980 ns         1 I0Y      -0.481900
     12 C9          -0.7680    -1.2060     0.4100 c3         1 I0Y       0.048700
     13 C10          0.2740    -1.6970    -0.5840 c          1 I0Y       0.596100
     14 O3          -0.0330    -2.0720    -1.7060 o          1 I0Y      -0.609100
     15 C11         -1.3450    -2.4300     1.1570 c3         1 I0Y      -0.055100
     16 C12         -2.4360    -2.0200     2.1020 ca         1 I0Y      -0.086300
     17 C13         -2.1360    -1.5890     3.3920 ca         1 I0Y      -0.098000
     18 C14         -3.7640    -1.9950     1.6830 ca         1 I0Y      -0.098000
     19 C15         -3.1370    -1.1400     4.2410 ca         1 I0Y      -0.108000
     20 C16         -4.7680    -1.5390     2.5260 ca         1 I0Y      -0.108000
     21 C17         -4.4570    -1.1080     3.8090 ca         1 I0Y      -0.106000
     22 N2           1.5300    -1.7500    -0.1250 ns         1 I0Y      -0.484900
     23 O5           5.2660     3.1440     0.9550 os         1 I0Y      -0.367100
     24 O6           2.5910    -5.6290    -2.7000 oh         1 I0Y      -0.628000
     25 C18          3.9200    -2.2430    -0.1720 c3         1 I0Y      -0.031100
     26 C19          2.5800    -2.3300    -0.9190 c3         1 I0Y       0.015700
     27 C20          2.2750    -3.7920    -1.2280 c          1 I0Y       0.562100
     28 C21          2.7210    -4.2470    -2.5880 c3         1 I0Y       0.060600
     29 C23          4.3190    -0.8200     0.1020 ca         1 I0Y      -0.138300
     30 C24          4.9940     1.8810     0.5830 ca         1 I0Y       0.176100
     31 C25          4.8510     4.5450    -1.0190 c3         1 I0Y      -0.107767
     32 C26          5.8070     4.1840     0.1150 c3         1 I0Y       0.204000
     33 C28          4.1860    -0.2600     1.3700 ca         1 I0Y      -0.069000
     34 C27          4.8050    -0.0030    -0.9110 ca         1 I0Y      -0.069000
     35 C30          4.5150     1.0620     1.6100 ca         1 I0Y      -0.173500
     36 C29          5.1400     1.3260    -0.6890 ca         1 I0Y      -0.173500
     37 C32          5.9120     5.3690     1.0710 c3         1 I0Y      -0.107767
     38 C33          7.2020     3.8240    -0.3880 c3         1 I0Y      -0.107767
     39 H2          -4.6610     1.7150     1.0440 h1         1 I0Y       0.056200
     40 H2A         -3.7830     2.8770     0.0400 h1         1 I0Y       0.056200
     41 H8          -6.5950     0.4400     0.0670 ha         1 I0Y       0.114500
     42 H7          -8.5190     0.5510    -1.4680 ha         1 I0Y       0.114000
     43 H6          -8.5460     2.2100    -3.3050 ha         1 I0Y       0.112000
     44 H5          -6.6330     3.7530    -3.5970 ha         1 I0Y       0.114000
     45 H4          -4.7090     3.6390    -2.0620 ha         1 I0Y       0.114500
     46 HN1         -2.2230    -0.9550    -1.0780 hn         1 I0Y       0.339500
     47 H9          -0.3080    -0.5300     1.1310 h1         1 I0Y       0.091700
     48 H11         -1.7350    -3.1370     0.4200 hc         1 I0Y       0.066700
     49 H11A        -0.5360    -2.9330     1.6900 hc         1 I0Y       0.066700
     50 H13         -1.1080    -1.6030     3.7350 ha         1 I0Y       0.110000
     51 H14         -4.0180    -2.3380     0.6860 ha         1 I0Y       0.110000
     52 H15         -2.8860    -0.8120     5.2420 ha         1 I0Y       0.110500
     53 H16         -5.7950    -1.5280     2.1840 ha         1 I0Y       0.110500
     54 H17         -5.2380    -0.7550     4.4700 ha         1 I0Y       0.111000
     55 HN2          1.7400    -1.4220     0.8050 hn         1 I0Y       0.331500
     56 HO6          2.8750    -5.8850    -3.5830 ho         1 I0Y       0.446000
     57 H18          3.8470    -2.8050     0.7620 hc         1 I0Y       0.061200
     58 H18A         4.6840    -2.7390    -0.7750 hc         1 I0Y       0.061200
     59 H19          2.6750    -1.7820    -1.8630 h1         1 I0Y       0.074700
     60 H21          3.7510    -3.8930    -2.7480 h1         1 I0Y       0.041200
     61 H21A         2.1050    -3.6910    -3.3120 h1         1 I0Y       0.041200
     62 H25          3.8490     4.7390    -0.6330 hc         1 I0Y       0.047033
     63 H25A         5.2000     5.4580    -1.5030 hc         1 I0Y       0.047033
     64 H25B         4.7760     3.7830    -1.7930 hc         1 I0Y       0.047033
     65 H28          3.8270    -0.8670     2.1940 ha         1 I0Y       0.108000
     66 H27          4.9340    -0.4040    -1.9100 ha         1 I0Y       0.108000
     67 H30          4.4040     1.4750     2.6060 ha         1 I0Y       0.123500
     68 H29          5.5150     1.8960    -1.5240 ha         1 I0Y       0.123500
     69 H32          6.5650     5.1370     1.9140 hc         1 I0Y       0.047033
     70 H32A         6.3290     6.2310     0.5520 hc         1 I0Y       0.047033
     71 H32B         4.9330     5.6520     1.4590 hc         1 I0Y       0.047033
     72 H33          7.2090     3.0180    -1.1200 hc         1 I0Y       0.047033
     73 H33A         7.6480     4.6960    -0.8680 hc         1 I0Y       0.047033
     74 H33B         7.8490     3.5350     0.4420 hc         1 I0Y       0.047033
     75 O4           1.7440    -4.5160    -0.4260 o          1 I0Y      -0.478100
@<TRIPOS>BOND
     1     1     2 2   
     2     1     3 1   
     3     1    11 1   
     4     3     4 1   
     5     4     5 1   
     6     4    39 1   
     7     4    40 1   
     8     5     6 ar  
     9     5    10 ar  
    10     6     7 ar  
    11     6    41 1   
    12     7     8 ar  
    13     7    42 1   
    14     8     9 ar  
    15     8    43 1   
    16     9    10 ar  
    17     9    44 1   
    18    10    45 1   
    19    11    12 1   
    20    11    46 1   
    21    12    13 1   
    22    12    15 1   
    23    12    47 1   
    24    13    14 2   
    25    13    22 1   
    26    15    16 1   
    27    15    48 1   
    28    15    49 1   
    29    16    17 ar  
    30    16    18 ar  
    31    17    19 ar  
    32    17    50 1   
    33    18    20 ar  
    34    18    51 1   
    35    19    21 ar  
    36    19    52 1   
    37    20    21 ar  
    38    20    53 1   
    39    21    54 1   
    40    22    26 1   
    41    22    55 1   
    42    23    30 1   
    43    23    32 1   
    44    24    28 1   
    45    24    56 1   
    46    25    26 1   
    47    25    29 1   
    48    25    57 1   
    49    25    58 1   
    50    26    27 1   
    51    26    59 1   
    52    27    28 1   
    53    27    75 2   
    54    28    60 1   
    55    28    61 1   
    56    29    33 ar  
    57    29    34 ar  
    58    30    35 ar  
    59    30    36 ar  
    60    31    32 1   
    61    31    62 1   
    62    31    63 1   
    63    31    64 1   
    64    32    37 1   
    65    32    38 1   
    66    33    35 ar  
    67    33    65 1   
    68    34    36 ar  
    69    34    66 1   
    70    35    67 1   
    71    36    68 1   
    72    37    69 1   
    73    37    70 1   
    74    37    71 1   
    75    38    72 1   
    76    38    73 1   
    77    38    74 1   
@<TRIPOS>SUBSTRUCTURE
     1 I0Y         1 TEMP              0 ****  ****    0 ROOT
