@<TRIPOS>MOLECULE
I0Y
   75    77     1     0     0
SMALL
No Charge or Current Charge


@<TRIPOS>ATOM
      1 C1          -1.2340     0.5370     0.9220 c          1 I0Y       0.642100
      2 O1          -1.0060     0.6520     2.1160 o          1 I0Y      -0.540000
      3 O2          -1.8390     1.4640     0.1330 os         1 I0Y      -0.456100
      4 C2          -2.2850     2.6790     0.7560 c3         1 I0Y       0.230900
      5 C3          -2.8960     3.5730    -0.3160 ca         1 I0Y      -0.099300
      6 C8          -4.0220     3.1380    -1.0440 ca         1 I0Y      -0.085000
      7 C7          -4.5870     3.9580    -2.0360 ca         1 I0Y      -0.115500
      8 C6          -4.0310     5.2200    -2.3070 ca         1 I0Y      -0.098000
      9 C5          -2.9100     5.6610    -1.5830 ca         1 I0Y      -0.115500
     10 C4          -2.3460     4.8420    -0.5900 ca         1 I0Y      -0.085000
     11 N1          -0.8780    -0.5270     0.1460 ns         1 I0Y      -0.481900
     12 C9          -0.1930    -1.7460     0.6280 c3         1 I0Y       0.048700
     13 C10          0.8590    -2.2090    -0.4170 c          1 I0Y       0.596100
     14 O3           0.8380    -1.8500    -1.5890 o          1 I0Y      -0.609100
     15 C11         -1.2090    -2.8740     0.9440 c3         1 I0Y      -0.055100
     16 C12         -2.2620    -2.4680     1.9700 ca         1 I0Y      -0.086300
     17 C13         -1.9560    -2.4890     3.3450 ca         1 I0Y      -0.098000
     18 C14         -3.5450    -2.0610     1.5530 ca         1 I0Y      -0.098000
     19 C15         -2.9220    -2.1070     4.2920 ca         1 I0Y      -0.108000
     20 C16         -4.5100    -1.6780     2.5000 ca         1 I0Y      -0.108000
     21 C17         -4.2000    -1.7000     3.8700 ca         1 I0Y      -0.106000
     22 N2           1.8390    -3.0540     0.0700 ns         1 I0Y      -0.484900
     23 O5           2.5380     2.9850     0.1830 os         1 I0Y      -0.367100
     24 O6           4.5370    -6.9030    -1.5770 oh         1 I0Y      -0.628000
     25 C18          4.2590    -2.4770    -0.2340 c3         1 I0Y      -0.031100
     26 C19          3.0850    -3.4030    -0.6570 c3         1 I0Y       0.015700
     27 C20          3.4410    -4.9080    -0.4850 c          1 I0Y       0.562100
     28 C21          4.5240    -5.4570    -1.4620 c3         1 I0Y       0.060600
     29 C23          3.8550    -1.0060    -0.1520 ca         1 I0Y      -0.138300
     30 C24          2.9800     1.6840    -0.0030 ca         1 I0Y       0.176100
     31 C25          0.9480     3.3780    -1.6530 c3         1 I0Y      -0.107767
     32 C26          2.1290     3.9460    -0.8220 c3         1 I0Y       0.204000
     33 C28          3.5820    -0.4150     1.0950 ca         1 I0Y      -0.069000
     34 C27          3.7020    -0.2430    -1.3230 ca         1 I0Y      -0.069000
     35 C30          3.1500     0.9190     1.1630 ca         1 I0Y      -0.173500
     36 C29          3.2680     1.0930    -1.2530 ca         1 I0Y      -0.173500
     37 C32          1.6310     5.1460     0.0160 c3         1 I0Y      -0.107767
     38 C33          3.3540     4.3920    -1.6660 c3         1 I0Y      -0.107767
     39 H2          -3.0400     2.4670     1.5250 h1         1 I0Y       0.056200
     40 H2A         -1.4450     3.1970     1.2380 h1         1 I0Y       0.056200
     41 H8          -4.4560     2.1610    -0.8420 ha         1 I0Y       0.114500
     42 H7          -5.4540     3.6150    -2.5960 ha         1 I0Y       0.114000
     43 H6          -4.4670     5.8540    -3.0750 ha         1 I0Y       0.112000
     44 H5          -2.4800     6.6380    -1.7910 ha         1 I0Y       0.114000
     45 H4          -1.4810     5.1960    -0.0340 ha         1 I0Y       0.114500
     46 HN1         -1.0880    -0.4440    -0.8400 hn         1 I0Y       0.339500
     47 H9           0.3590    -1.4990     1.5440 h1         1 I0Y       0.091700
     48 H11         -1.6940    -3.1860     0.0110 hc         1 I0Y       0.066700
     49 H11A        -0.6670    -3.7560     1.3070 hc         1 I0Y       0.066700
     50 H13         -0.9690    -2.7980     3.6800 ha         1 I0Y       0.110000
     51 H14         -3.7930    -2.0350     0.4940 ha         1 I0Y       0.110000
     52 H15         -2.6800    -2.1230     5.3520 ha         1 I0Y       0.110500
     53 H16         -5.4980    -1.3620     2.1720 ha         1 I0Y       0.110500
     54 H17         -4.9460    -1.4030     4.6030 ha         1 I0Y       0.111000
     55 HN2          1.7580    -3.3340     1.0420 hn         1 I0Y       0.331500
     56 HO6          5.2570    -7.1460    -2.2030 ho         1 I0Y       0.446000
     57 H18          4.6390    -2.8100     0.7400 hc         1 I0Y       0.061200
     58 H18A         5.0910    -2.5970    -0.9390 hc         1 I0Y       0.061200
     59 H19          2.9100    -3.2520    -1.7300 h1         1 I0Y       0.074700
     60 H21          5.4980    -5.0910    -1.1110 h1         1 I0Y       0.041200
     61 H21A         4.3410    -5.0030    -2.4460 h1         1 I0Y       0.041200
     62 H25          0.2090     2.9050    -0.9990 hc         1 I0Y       0.047033
     63 H25A         0.4450     4.1840    -2.2010 hc         1 I0Y       0.047033
     64 H25B         1.2680     2.6420    -2.3950 hc         1 I0Y       0.047033
     65 H28          3.6890    -0.9910     2.0120 ha         1 I0Y       0.108000
     66 H27          3.9020    -0.6910    -2.2940 ha         1 I0Y       0.108000
     67 H30          2.9330     1.3650     2.1300 ha         1 I0Y       0.123500
     68 H29          3.1600     1.6310    -2.1830 ha         1 I0Y       0.123500
     69 H32          2.4440     5.5640     0.6220 hc         1 I0Y       0.047033
     70 H32A         1.2460     5.9440    -0.6310 hc         1 I0Y       0.047033
     71 H32B         0.8260     4.8400     0.6950 hc         1 I0Y       0.047033
     72 H33          3.6180     3.6740    -2.4460 hc         1 I0Y       0.047033
     73 H33A         3.1400     5.3400    -2.1730 hc         1 I0Y       0.047033
     74 H33B         4.2310     4.5450    -1.0250 hc         1 I0Y       0.047033
     75 O4           2.8970    -5.6120     0.3640 o          1 I0Y      -0.478100
@<TRIPOS>BOND
     1     1     2 2   
     2     1     3 1   
     3     1    11 1   
     4     3     4 1   
     5     4     5 1   
     6     4    39 1   
     7     4    40 1   
     8     5     6 ar  
     9     5    10 ar  
    10     6     7 ar  
    11     6    41 1   
    12     7     8 ar  
    13     7    42 1   
    14     8     9 ar  
    15     8    43 1   
    16     9    10 ar  
    17     9    44 1   
    18    10    45 1   
    19    11    12 1   
    20    11    46 1   
    21    12    13 1   
    22    12    15 1   
    23    12    47 1   
    24    13    14 2   
    25    13    22 1   
    26    15    16 1   
    27    15    48 1   
    28    15    49 1   
    29    16    17 ar  
    30    16    18 ar  
    31    17    19 ar  
    32    17    50 1   
    33    18    20 ar  
    34    18    51 1   
    35    19    21 ar  
    36    19    52 1   
    37    20    21 ar  
    38    20    53 1   
    39    21    54 1   
    40    22    26 1   
    41    22    55 1   
    42    23    30 1   
    43    23    32 1   
    44    24    28 1   
    45    24    56 1   
    46    25    26 1   
    47    25    29 1   
    48    25    57 1   
    49    25    58 1   
    50    26    27 1   
    51    26    59 1   
    52    27    28 1   
    53    27    75 2   
    54    28    60 1   
    55    28    61 1   
    56    29    33 ar  
    57    29    34 ar  
    58    30    35 ar  
    59    30    36 ar  
    60    31    32 1   
    61    31    62 1   
    62    31    63 1   
    63    31    64 1   
    64    32    37 1   
    65    32    38 1   
    66    33    35 ar  
    67    33    65 1   
    68    34    36 ar  
    69    34    66 1   
    70    35    67 1   
    71    36    68 1   
    72    37    69 1   
    73    37    70 1   
    74    37    71 1   
    75    38    72 1   
    76    38    73 1   
    77    38    74 1   
@<TRIPOS>SUBSTRUCTURE
     1 I0Y         1 TEMP              0 ****  ****    0 ROOT
