@<TRIPOS>MOLECULE
I0Z
   75    79     1     0     0
SMALL
No Charge or Current Charge


@<TRIPOS>ATOM
      1 N1          14.3290     0.8170     5.0020 n          1 I0Z      -0.410800
      2 N3          13.6350     0.8320    11.2980 nc         1 I0Z      -0.574100
      3 C4          14.3150     4.3050     3.3660 c6         1 I0Z      -0.067400
      4 C5          14.5050     3.3590     4.5810 c6         1 I0Z      -0.134700
      5 C6          14.1860     4.0850     5.9150 c6         1 I0Z      -0.067400
      6 C7          14.9490     5.4260     6.0230 c6         1 I0Z       0.171300
      7 C8          13.7650     2.0010     4.4570 c          1 I0Z       0.604100
      8 C10         12.9860    -0.8870     6.2160 c6         1 I0Z      -0.098400
      9 C13         15.9470     0.3970     8.5080 c3         1 I0Z       0.087600
     10 C15         13.9980    -0.4970    11.3270 ca         1 I0Z       0.069400
     11 C17         13.9310    -2.8300    11.9660 ca         1 I0Z      -0.133000
     12 C20         15.0870    -0.7410    10.5380 ca         1 I0Z      -0.076200
     13 C21         14.6290     2.8080    10.2490 cd         1 I0Z      -0.243600
     14 C22         15.7620     3.4810     9.6590 cd         1 I0Z      -0.085000
     15 C28         15.4080     0.7850     6.0300 c6         1 I0Z       0.108000
     16 C25         14.5780     5.6770     9.9510 c          1 I0Z       0.545200
     17 C23         15.7430     4.8560     9.5200 cc         1 I0Z      -0.210400
     18 N4          13.5090     4.9540    10.5200 n          1 I0Z      -0.265000
     19 C27         13.5560     3.5700    10.6800 cc         1 I0Z       0.016600
     20 C14         14.5650     1.3730    10.4840 cd         1 I0Z       0.491100
     21 C19         15.6540    -2.0230    10.4290 ca         1 I0Z      -0.115000
     22 C18         15.0620    -3.0760    11.1560 ca         1 I0Z      -0.094000
     23 C16         13.3910    -1.5300    12.0570 ca         1 I0Z      -0.049000
     24 N2          15.4520     0.4240     9.9070 na         1 I0Z      -0.182600
     25 C12         14.8270     0.4310     7.4240 c6         1 I0Z      -0.115700
     26 C11         14.0320    -0.9070     7.3570 c6         1 I0Z      -0.072400
     27 C9          13.6430    -0.4950     4.8740 c6         1 I0Z       0.088000
     28 O           12.6790     1.9590     3.8910 o          1 I0Z      -0.605100
     29 C3          15.0930     5.6280     3.5670 c6         1 I0Z       0.171300
     30 N           14.7080     6.3070     4.8400 n3         1 I0Z      -0.733600
     31 C1          15.2560     7.6880     4.9640 c3         1 I0Z       0.188500
     32 C2          16.8000     7.7560     5.0780 c3         1 I0Z      -0.106600
     33 C           14.5860     8.4920     6.1010 c3         1 I0Z      -0.106600
     34 H11         13.2490     4.5340     3.2290 hc         1 I0Z       0.056450
     35 H10         14.6540     3.8130     2.4440 hc         1 I0Z       0.056450
     36 H12         15.5740     3.1250     4.6370 hc         1 I0Z       0.049700
     37 H14         13.1070     4.2790     5.9790 hc         1 I0Z       0.056450
     38 H13         14.4380     3.4540     6.7760 hc         1 I0Z       0.056450
     39 H16         14.6270     5.9180     6.9500 h1         1 I0Z       0.032450
     40 H15         16.0230     5.2100     6.1250 h1         1 I0Z       0.032450
     41 H19         12.1890    -0.1710     6.4570 hc         1 I0Z       0.053700
     42 H20         12.5080    -1.8720     6.1260 hc         1 I0Z       0.053700
     43 H24         16.5480    -0.5070     8.3550 h1         1 I0Z       0.060700
     44 H23         16.6290     1.2330     8.3390 h1         1 I0Z       0.060700
     45 H26         13.4760    -3.6450    12.5250 ha         1 I0Z       0.116000
     46 H29         16.6640     2.9470     9.3890 ha         1 I0Z       0.189000
     47 H31         16.6010     6.4360     8.2940 hc         1 I0Z       0.050033
     48 H32         17.4960     6.0920     9.7830 hc         1 I0Z       0.050033
     49 H30         17.5990     4.9840     8.4050 hc         1 I0Z       0.050033
     50 H34         11.5430     5.0470    11.3530 h1         1 I0Z       0.060700
     51 H35         12.6090     6.4180    11.7620 h1         1 I0Z       0.060700
     52 H33         11.9060     6.2850    10.1230 h1         1 I0Z       0.060700
     53 H37         15.9470     1.7360     6.0980 h1         1 I0Z       0.051700
     54 H38         16.1480     0.0240     5.7400 h1         1 I0Z       0.051700
     55 H36         12.6610     3.1780    11.1560 h4         1 I0Z       0.218000
     56 H28         16.5230    -2.2090     9.8040 ha         1 I0Z       0.116000
     57 H27         15.4770    -4.0800    11.0920 ha         1 I0Z       0.113000
     58 H25         12.5250    -1.3290    12.6820 ha         1 I0Z       0.129000
     59 H           14.1340     1.2350     7.7060 hc         1 I0Z       0.066700
     60 H22         13.5200    -1.0980     8.3090 hc         1 I0Z       0.049700
     61 H21         14.7260    -1.7450     7.2010 hc         1 I0Z       0.049700
     62 H18         12.8830    -0.4710     4.0800 h1         1 I0Z       0.064200
     63 H17         14.3800    -1.2600     4.5880 h1         1 I0Z       0.064200
     64 H9          14.8920     6.2850     2.7080 h1         1 I0Z       0.032450
     65 H8          16.1700     5.4050     3.5600 h1         1 I0Z       0.032450
     66 H4          14.9970     8.2240     4.0390 h1         1 I0Z       0.049700
     67 H6          17.2860     7.2830     4.2180 hc         1 I0Z       0.039033
     68 H7          17.1320     8.8010     5.1090 hc         1 I0Z       0.039033
     69 H5          17.1550     7.2650     5.9910 hc         1 I0Z       0.039033
     70 H2          13.4950     8.4180     6.0340 hc         1 I0Z       0.039033
     71 H1          14.9000     8.1330     7.0880 hc         1 I0Z       0.039033
     72 H3          14.8570     9.5520     6.0290 hc         1 I0Z       0.039033
     73 C24         16.9200     5.6340     8.9700 c3         1 I0Z      -0.038900
     74 C26         12.3200     5.7180    10.9670 c3         1 I0Z       0.075300
     75 O1          14.5390     6.8970     9.8380 o          1 I0Z      -0.559000
@<TRIPOS>BOND
     1     1     7 1   
     2     1    15 1   
     3     1    27 1   
     4     2    10 1   
     5     2    20 2   
     6     3     4 1   
     7     3    29 1   
     8     3    34 1   
     9     3    35 1   
    10     4     5 1   
    11     4     7 1   
    12     4    36 1   
    13     5     6 1   
    14     5    37 1   
    15     5    38 1   
    16     6    30 1   
    17     6    39 1   
    18     6    40 1   
    19     7    28 2   
    20     8    26 1   
    21     8    27 1   
    22     8    41 1   
    23     8    42 1   
    24     9    24 1   
    25     9    25 1   
    26     9    43 1   
    27     9    44 1   
    28    10    12 ar  
    29    10    23 ar  
    30    11    22 ar  
    31    11    23 ar  
    32    11    45 1   
    33    12    21 ar  
    34    12    24 1   
    35    13    14 1   
    36    13    19 2   
    37    13    20 1   
    38    14    17 2   
    39    14    46 1   
    40    15    25 1   
    41    15    53 1   
    42    15    54 1   
    43    16    17 1   
    44    16    18 1   
    45    16    75 2   
    46    17    73 1   
    47    18    19 1   
    48    18    74 1   
    49    19    55 1   
    50    20    24 1   
    51    21    22 ar  
    52    21    56 1   
    53    22    57 1   
    54    23    58 1   
    55    25    26 1   
    56    25    59 1   
    57    26    60 1   
    58    26    61 1   
    59    27    62 1   
    60    27    63 1   
    61    29    30 1   
    62    29    64 1   
    63    29    65 1   
    64    30    31 1   
    65    31    32 1   
    66    31    33 1   
    67    31    66 1   
    68    32    67 1   
    69    32    68 1   
    70    32    69 1   
    71    33    70 1   
    72    33    71 1   
    73    33    72 1   
    74    47    73 1   
    75    48    73 1   
    76    49    73 1   
    77    50    74 1   
    78    51    74 1   
    79    52    74 1   
@<TRIPOS>SUBSTRUCTURE
     1 I0Z         1 TEMP              0 ****  ****    0 ROOT
