@<TRIPOS>MOLECULE
I0Z
   75    79     1     0     0
SMALL
abcg2


@<TRIPOS>ATOM
      1 N1          14.0790     1.0040     5.1070 n          1 I0Z      -0.410800
      2 N3          14.1900     0.7850    11.6820 nc         1 I0Z      -0.574100
      3 C4          14.4040     4.3310     3.4620 c6         1 I0Z      -0.067400
      4 C5          14.5500     3.3940     4.6620 c6         1 I0Z      -0.134700
      5 C6          14.2100     4.1610     5.9520 c6         1 I0Z      -0.067400
      6 C7          15.0540     5.4260     6.0510 c6         1 I0Z       0.171300
      7 C8          13.6730     2.1570     4.5170 c          1 I0Z       0.604100
      8 C10         12.6360    -0.4860     6.4250 c6         1 I0Z      -0.098400
      9 C13         15.8200     0.5000     8.4440 c3         1 I0Z       0.087600
     10 C15         14.4870    -0.5670    11.6500 ca         1 I0Z       0.069400
     11 C17         14.5970    -2.8690    12.2620 ca         1 I0Z      -0.133000
     12 C20         15.2310    -0.8610    10.4870 ca         1 I0Z      -0.076200
     13 C21         14.6420     2.7070    10.2140 cd         1 I0Z      -0.243600
     14 C22         15.7780     3.4750     9.8550 cd         1 I0Z      -0.085000
     15 C28         15.1820     0.8720     6.0540 c6         1 I0Z       0.108000
     16 C25         14.4040     5.4670     9.6080 c          1 I0Z       0.545200
     17 C23         15.6890     4.8050     9.5600 cc         1 I0Z      -0.210400
     18 N4          13.3160     4.6580     9.9570 n          1 I0Z      -0.265000
     19 C27         13.4340     3.3430    10.2540 cc         1 I0Z       0.016600
     20 C14         14.7230     1.2930    10.5870 cd         1 I0Z       0.491100
     21 C19         15.6610    -2.1510    10.1890 ca         1 I0Z      -0.115000
     22 C18         15.3310    -3.1490    11.0970 ca         1 I0Z      -0.094000
     23 C16         14.1680    -1.5830    12.5530 ca         1 I0Z      -0.049000
     24 N2          15.3740     0.3460     9.8250 na         1 I0Z      -0.182600
     25 C12         14.6490     0.6140     7.4680 c6         1 I0Z      -0.115700
     26 C11         13.7360    -0.6140     7.4790 c6         1 I0Z      -0.072400
     27 C9          13.2310    -0.1880     5.0510 c6         1 I0Z       0.088000
     28 O           12.6160     2.2140     3.8780 o          1 I0Z      -0.605100
     29 C3          15.2420     5.5900     3.6610 c6         1 I0Z       0.171300
     30 N           14.8560     6.2820     4.8860 n3         1 I0Z      -0.733600
     31 C1          15.4430     7.6280     5.0080 c3         1 I0Z       0.188500
     32 C2          16.9450     7.6480     5.3280 c3         1 I0Z      -0.106600
     33 C           14.6620     8.4740     6.0120 c3         1 I0Z      -0.106600
     34 H11         13.3560     4.6070     3.3380 hc         1 I0Z       0.056450
     35 H10         14.7210     3.8230     2.5480 hc         1 I0Z       0.056450
     36 H12         15.5980     3.0940     4.7150 hc         1 I0Z       0.049700
     37 H14         13.1490     4.4250     5.9450 hc         1 I0Z       0.056450
     38 H13         14.3900     3.5450     6.8340 hc         1 I0Z       0.056450
     39 H16         14.7820     5.9780     6.9480 h1         1 I0Z       0.032450
     40 H15         16.1100     5.1290     6.1610 h1         1 I0Z       0.032450
     41 H19         11.9540     0.3250     6.6970 hc         1 I0Z       0.053700
     42 H20         12.0490    -1.4050     6.3730 hc         1 I0Z       0.053700
     43 H24         16.4380    -0.3640     8.2010 h1         1 I0Z       0.060700
     44 H23         16.4580     1.3790     8.3690 h1         1 I0Z       0.060700
     45 H26         14.3610    -3.6780    12.9430 ha         1 I0Z       0.116000
     46 H29         16.7520     3.0010     9.8430 ha         1 I0Z       0.189000
     47 H31         16.6340     6.6640     9.0660 hc         1 I0Z       0.050033
     48 H32         17.6630     5.5470     9.9760 hc         1 I0Z       0.050033
     49 H30         17.3430     5.2600     8.2670 hc         1 I0Z       0.050033
     50 H34         11.2590     4.5510    10.2690 h1         1 I0Z       0.060700
     51 H35         12.0010     6.1090    10.7140 h1         1 I0Z       0.060700
     52 H33         11.7640     5.7050     9.0080 h1         1 I0Z       0.060700
     53 H37         15.8060     1.7590     6.0440 h1         1 I0Z       0.051700
     54 H38         15.8060     0.0280     5.7390 h1         1 I0Z       0.051700
     55 H36         12.5220     2.8270    10.5150 h4         1 I0Z       0.218000
     56 H28         16.2210    -2.3750     9.2910 ha         1 I0Z       0.116000
     57 H27         15.6470    -4.1660    10.9010 ha         1 I0Z       0.113000
     58 H25         13.5990    -1.3670    13.4490 ha         1 I0Z       0.129000
     59 H           14.0550     1.4880     7.7550 hc         1 I0Z       0.066700
     60 H22         13.2950    -0.7470     8.4680 hc         1 I0Z       0.049700
     61 H21         14.3370    -1.5060     7.2740 hc         1 I0Z       0.049700
     62 H18         12.4570    -0.0230     4.3080 h1         1 I0Z       0.064200
     63 H17         13.8540    -1.0270     4.7250 h1         1 I0Z       0.064200
     64 H9          15.0920     6.2700     2.8190 h1         1 I0Z       0.032450
     65 H8          16.3110     5.3120     3.6670 h1         1 I0Z       0.032450
     66 H4          15.3100     8.0840     4.0220 h1         1 I0Z       0.049700
     67 H6          17.5140     7.0330     4.6290 hc         1 I0Z       0.039033
     68 H7          17.3250     8.6690     5.2620 hc         1 I0Z       0.039033
     69 H5          17.1390     7.2840     6.3390 hc         1 I0Z       0.039033
     70 H2          13.5990     8.4760     5.7650 hc         1 I0Z       0.039033
     71 H1          14.7760     8.0980     7.0300 hc         1 I0Z       0.039033
     72 H3          15.0250     9.5040     5.9950 hc         1 I0Z       0.039033
     73 C24         16.9000     5.6180     9.1980 c3         1 I0Z      -0.038900
     74 C26         11.9990     5.2960     9.9900 c3         1 I0Z       0.075300
     75 O1          14.2100     6.6660     9.3660 o          1 I0Z      -0.559000
@<TRIPOS>BOND
     1     1     7 1   
     2     1    15 1   
     3     1    27 1   
     4     2    10 1   
     5     2    20 2   
     6     3     4 1   
     7     3    29 1   
     8     3    34 1   
     9     3    35 1   
    10     4     5 1   
    11     4     7 1   
    12     4    36 1   
    13     5     6 1   
    14     5    37 1   
    15     5    38 1   
    16     6    30 1   
    17     6    39 1   
    18     6    40 1   
    19     7    28 2   
    20     8    26 1   
    21     8    27 1   
    22     8    41 1   
    23     8    42 1   
    24     9    24 1   
    25     9    25 1   
    26     9    43 1   
    27     9    44 1   
    28    10    12 ar  
    29    10    23 ar  
    30    11    22 ar  
    31    11    23 ar  
    32    11    45 1   
    33    12    21 ar  
    34    12    24 1   
    35    13    14 1   
    36    13    19 2   
    37    13    20 1   
    38    14    17 2   
    39    14    46 1   
    40    15    25 1   
    41    15    53 1   
    42    15    54 1   
    43    16    17 1   
    44    16    18 1   
    45    16    75 2   
    46    17    73 1   
    47    18    19 1   
    48    18    74 1   
    49    19    55 1   
    50    20    24 1   
    51    21    22 ar  
    52    21    56 1   
    53    22    57 1   
    54    23    58 1   
    55    25    26 1   
    56    25    59 1   
    57    26    60 1   
    58    26    61 1   
    59    27    62 1   
    60    27    63 1   
    61    29    30 1   
    62    29    64 1   
    63    29    65 1   
    64    30    31 1   
    65    31    32 1   
    66    31    33 1   
    67    31    66 1   
    68    32    67 1   
    69    32    68 1   
    70    32    69 1   
    71    33    70 1   
    72    33    71 1   
    73    33    72 1   
    74    47    73 1   
    75    48    73 1   
    76    49    73 1   
    77    50    74 1   
    78    51    74 1   
    79    52    74 1   
@<TRIPOS>SUBSTRUCTURE
     1 I0Z         1 TEMP              0 ****  ****    0 ROOT
