@<TRIPOS>MOLECULE
I10
   65    67     1     0     0
SMALL
No Charge or Current Charge


@<TRIPOS>ATOM
      1 C1          -4.4500    -2.0840    -3.7430 ca         1 I10      -0.113000
      2 C2          -3.3600    -1.1980    -3.7950 ca         1 I10      -0.102500
      3 C3          -2.3700    -1.1940    -2.7790 cp         1 I10      -0.037000
      4 C7          -1.2190    -0.2370    -2.8230 cp         1 I10      -0.032000
      5 C8           0.0640    -0.6160    -2.3550 ca         1 I10      -0.100000
      6 C9           1.1510     0.2820    -2.3670 ca         1 I10      -0.079300
      7 C10          0.9490     1.5930    -2.8450 ca         1 I10      -0.080000
      8 C11         -0.3100     1.9860    -3.3240 ca         1 I10      -0.113000
      9 C12         -1.3820     1.0800    -3.3160 ca         1 I10      -0.106000
     10 C13          2.5110    -0.1750    -1.8190 c3         1 I10      -0.089400
     11 C14          2.6240     0.2290    -0.3350 c          1 I10       0.602100
     12 C16          3.7440     0.3140    -2.6360 c3         1 I10      -0.061400
     13 C20          4.9420     0.5980    -4.8730 c3         1 I10      -0.088100
     14 C24          3.6590    -1.5540    -4.4260 c3         1 I10      -0.088100
     15 N29          2.6560    -0.8220     0.5590 ns         1 I10      -0.500900
     16 C30          2.5800    -0.6740     2.0210 c3         1 I10       0.069000
     17 C31          1.1630    -0.2600     2.4910 c3         1 I10       0.101300
     18 C35          1.0400    -0.1450     4.0350 c3         1 I10       0.197800
     19 C4          -2.5180    -2.1110    -1.7070 ca         1 I10      -0.102500
     20 C5          -3.6090    -2.9950    -1.6530 ca         1 I10      -0.113000
     21 C6          -4.5750    -2.9830    -2.6720 ca         1 I10      -0.109000
     22 O15          2.6510     1.3940     0.0390 o          1 I10      -0.589100
     23 C17          3.7280    -0.0320    -4.1540 c3         1 I10      -0.061700
     24 O34          0.1890    -1.2130     2.0050 oh         1 I10      -0.670000
     25 N36         -0.3890    -0.0880     4.4220 n7         1 I10      -0.901300
     26 S39         -1.2470     1.3500     4.2080 sy         1 I10       1.104200
     27 O40         -2.3020     1.2920     5.2260 o          1 I10      -0.527000
     28 O41         -0.2430     2.4230     4.2140 o          1 I10      -0.527000
     29 C42         -1.9800     1.1680     2.5170 ca         1 I10       0.122900
     30 N43         -1.4360     1.8540     1.4620 nb         1 I10      -0.610000
     31 C44         -1.9850     1.6950     0.2350 ca         1 I10       0.326900
     32 C45         -3.0940     0.8660    -0.0020 ca         1 I10      -0.107000
     33 C46         -3.6600     0.1590     1.0710 ca         1 I10      -0.084000
     34 C47         -3.0940     0.3140     2.3480 ca         1 I10      -0.068000
     35 H1          -5.1960    -2.0740    -4.5340 ha         1 I10       0.113500
     36 H2          -3.2760    -0.5160    -4.6370 ha         1 I10       0.120000
     37 H8           0.2160    -1.6260    -1.9850 ha         1 I10       0.113000
     38 H10          1.7610     2.3150    -2.8430 ha         1 I10       0.125000
     39 H11         -0.4580     2.9980    -3.6930 ha         1 I10       0.116000
     40 H12         -2.3540     1.4110    -3.6730 ha         1 I10       0.111000
     41 H13          2.5370    -1.2700    -1.8480 hc         1 I10       0.058700
     42 H161         4.6490    -0.1150    -2.1870 hc         1 I10       0.054700
     43 H162         3.8430     1.4000    -2.5210 hc         1 I10       0.054700
     44 H201         4.8990     0.4030    -5.9510 hc         1 I10       0.033200
     45 H202         4.9570     1.6860    -4.7300 hc         1 I10       0.033200
     46 H203         5.8830     0.1880    -4.4870 hc         1 I10       0.033200
     47 H241         4.4940    -2.0760    -3.9430 hc         1 I10       0.033200
     48 H242         2.7210    -1.9810    -4.0550 hc         1 I10       0.033200
     49 H243         3.7070    -1.7560    -5.5030 hc         1 I10       0.033200
     50 HN2          2.6740    -1.7570     0.1670 hn         1 I10       0.313500
     51 H301         2.8580    -1.6290     2.4870 h1         1 I10       0.068700
     52 H302         3.3100     0.0810     2.3430 h1         1 I10       0.068700
     53 H31          0.9590     0.7340     2.0680 h1         1 I10       0.103700
     54 H351         1.4970    -1.0450     4.4710 h1         1 I10       0.074200
     55 H352         1.6150     0.7140     4.4080 h1         1 I10       0.074200
     56 H4          -1.7920    -2.1240    -0.8990 ha         1 I10       0.120000
     57 H5          -3.7070    -3.6870    -0.8190 ha         1 I10       0.113500
     58 H6          -5.4200    -3.6680    -2.6300 ha         1 I10       0.114000
     59 H17          2.8310     0.4180    -4.5970 hc         1 I10       0.051700
     60 HO3          0.3380    -1.3020     1.0380 ho         1 I10       0.442000
     61 HN3         -0.8370    -0.6960     3.7300 hn         1 I10       0.496000
     62 H44         -1.5250     2.2550    -0.5790 h4         1 I10       0.032100
     63 H45         -3.5040     0.7790    -1.0030 ha         1 I10       0.126000
     64 H46         -4.5180    -0.4930     0.9160 ha         1 I10       0.125000
     65 H47         -3.5160    -0.2200     3.1980 ha         1 I10       0.149000
@<TRIPOS>BOND
     1     1     2 ar  
     2     1    21 ar  
     3     1    35 1   
     4     2     3 ar  
     5     2    36 1   
     6     3     4 1   
     7     3    19 ar  
     8     4     5 ar  
     9     4     9 ar  
    10     5     6 ar  
    11     5    37 1   
    12     6     7 ar  
    13     6    10 1   
    14     7     8 ar  
    15     7    38 1   
    16     8     9 ar  
    17     8    39 1   
    18     9    40 1   
    19    10    11 1   
    20    10    12 1   
    21    10    41 1   
    22    11    15 1   
    23    11    22 2   
    24    12    23 1   
    25    12    42 1   
    26    12    43 1   
    27    13    23 1   
    28    13    44 1   
    29    13    45 1   
    30    13    46 1   
    31    14    23 1   
    32    14    47 1   
    33    14    48 1   
    34    14    49 1   
    35    15    16 1   
    36    15    50 1   
    37    16    17 1   
    38    16    51 1   
    39    16    52 1   
    40    17    18 1   
    41    17    24 1   
    42    17    53 1   
    43    18    25 1   
    44    18    54 1   
    45    18    55 1   
    46    19    20 ar  
    47    19    56 1   
    48    20    21 ar  
    49    20    57 1   
    50    21    58 1   
    51    23    59 1   
    52    24    60 1   
    53    25    26 1   
    54    25    61 1   
    55    26    27 2   
    56    26    28 2   
    57    26    29 1   
    58    29    30 ar  
    59    29    34 ar  
    60    30    31 ar  
    61    31    32 ar  
    62    31    62 1   
    63    32    33 ar  
    64    32    63 1   
    65    33    34 ar  
    66    33    64 1   
    67    34    65 1   
@<TRIPOS>SUBSTRUCTURE
     1 I10         1 TEMP              0 ****  ****    0 ROOT
