@<TRIPOS>MOLECULE
I10
   65    67     1     0     0
SMALL
bcc


@<TRIPOS>ATOM
      1 C1          -4.3570    -1.7560    -2.3950 ca         1 I10      -0.131000
      2 C2          -3.2640    -1.0130    -2.8160 ca         1 I10      -0.120500
      3 C3          -2.0870    -0.9830    -2.0650 cp         1 I10      -0.037000
      4 C7          -0.9460    -0.1390    -2.4720 cp         1 I10      -0.032000
      5 C8           0.3650    -0.5220    -2.1930 ca         1 I10      -0.118000
      6 C9           1.4510     0.2940    -2.4930 ca         1 I10      -0.079300
      7 C10          1.2170     1.5230    -3.1020 ca         1 I10      -0.098000
      8 C11         -0.0790     1.9070    -3.4160 ca         1 I10      -0.131000
      9 C12         -1.1520     1.0900    -3.1010 ca         1 I10      -0.124000
     10 C13          2.8330    -0.1420    -2.0520 c3         1 I10      -0.089400
     11 C14          2.9390     0.3120    -0.5990 c          1 I10       0.669100
     12 C16          3.9930     0.3920    -2.8870 c3         1 I10      -0.061400
     13 C20          5.1730     0.5940    -5.0750 c3         1 I10      -0.088100
     14 C24          3.8720    -1.4950    -4.5800 c3         1 I10      -0.088100
     15 N29          2.7140    -0.6570     0.3070 ns         1 I10      -0.567900
     16 C30          2.4020    -0.4150     1.6950 c3         1 I10       0.069000
     17 C31          0.9230    -0.6890     1.9640 c3         1 I10       0.078100
     18 C35          0.5590    -0.3660     3.4080 c3         1 I10       0.197800
     19 C4          -2.0330    -1.7310    -0.8880 ca         1 I10      -0.120500
     20 C5          -3.1230    -2.4760    -0.4690 ca         1 I10      -0.131000
     21 C6          -4.2920    -2.4900    -1.2180 ca         1 I10      -0.127000
     22 O15          3.1550     1.4780    -0.3050 o          1 I10      -0.589100
     23 C17          3.9510     0.0140    -4.3700 c3         1 I10      -0.061700
     24 O34          0.5770    -2.0160     1.6280 oh         1 I10      -0.607800
     25 N36         -0.8120    -0.7200     3.7400 n7         1 I10      -0.846100
     26 S39         -2.0400     0.3470     3.8370 sy         1 I10       1.245800
     27 O40         -3.1300    -0.3350     4.5150 o          1 I10      -0.597800
     28 O41         -1.4970     1.5810     4.3790 o          1 I10      -0.597800
     29 C42         -2.6170     0.7110     2.1800 ca         1 I10       0.188200
     30 N43         -1.7700     1.4150     1.4510 nb         1 I10      -0.610000
     31 C44         -2.1490     1.7500     0.2280 ca         1 I10       0.392200
     32 C45         -3.3880     1.4030    -0.2980 ca         1 I10      -0.190300
     33 C46         -4.2550     0.6570     0.4790 ca         1 I10      -0.102000
     34 C47         -3.8650     0.2910     1.7610 ca         1 I10      -0.151300
     35 H1          -5.2590    -1.7650    -2.9920 ha         1 I10       0.131500
     36 H2          -3.3280    -0.4550    -3.7420 ha         1 I10       0.138000
     37 H8           0.5500    -1.4870    -1.7330 ha         1 I10       0.131000
     38 H10          2.0400     2.1850    -3.3410 ha         1 I10       0.143000
     39 H11         -0.2560     2.8610    -3.8960 ha         1 I10       0.134000
     40 H12         -2.1580     1.4260    -3.3230 ha         1 I10       0.129000
     41 H13          2.8600    -1.2350    -2.0820 hc         1 I10       0.058700
     42 H161         4.9220     0.0020    -2.4560 hc         1 I10       0.054700
     43 H162         4.0520     1.4780    -2.7890 hc         1 I10       0.054700
     44 H201         5.1480     0.3870    -6.1460 hc         1 I10       0.033200
     45 H202         5.2280     1.6770    -4.9490 hc         1 I10       0.033200
     46 H203         6.0950     0.1660    -4.6750 hc         1 I10       0.033200
     47 H241         4.6990    -2.0050    -4.0790 hc         1 I10       0.033200
     48 H242         2.9400    -1.9170    -4.2000 hc         1 I10       0.033200
     49 H243         3.9270    -1.7430    -5.6410 hc         1 I10       0.033200
     50 HN2          2.5350    -1.5880    -0.0340 hn         1 I10       0.313500
     51 H301         3.0260    -1.0520     2.3300 h1         1 I10       0.068700
     52 H302         2.6470     0.6180     1.9380 h1         1 I10       0.068700
     53 H31          0.3300    -0.0530     1.3020 h1         1 I10       0.103700
     54 H351         1.2130    -0.9120     4.0940 h1         1 I10       0.074200
     55 H352         0.7150     0.6930     3.6080 h1         1 I10       0.074200
     56 H4          -1.1440    -1.7080    -0.2710 ha         1 I10       0.138000
     57 H5          -3.0640    -3.0360     0.4560 ha         1 I10       0.131500
     58 H6          -5.1460    -3.0670    -0.8870 ha         1 I10       0.132000
     59 H17          3.0590     0.4640    -4.8190 hc         1 I10       0.051700
     60 HO3          1.1040    -2.6240     2.1600 ho         1 I10       0.403000
     61 HN3         -1.0990    -1.6590     3.4880 hn         1 I10       0.440800
     62 H44         -1.4410     2.3210    -0.3600 h4         1 I10       0.032100
     63 H45         -3.6560     1.7090    -1.2990 ha         1 I10       0.144000
     64 H46         -5.2220     0.3580     0.0990 ha         1 I10       0.143000
     65 H47         -4.5140    -0.2920     2.3980 ha         1 I10       0.167000
@<TRIPOS>BOND
     1     1     2 ar  
     2     1    21 ar  
     3     1    35 1   
     4     2     3 ar  
     5     2    36 1   
     6     3     4 1   
     7     3    19 ar  
     8     4     5 ar  
     9     4     9 ar  
    10     5     6 ar  
    11     5    37 1   
    12     6     7 ar  
    13     6    10 1   
    14     7     8 ar  
    15     7    38 1   
    16     8     9 ar  
    17     8    39 1   
    18     9    40 1   
    19    10    11 1   
    20    10    12 1   
    21    10    41 1   
    22    11    15 1   
    23    11    22 2   
    24    12    23 1   
    25    12    42 1   
    26    12    43 1   
    27    13    23 1   
    28    13    44 1   
    29    13    45 1   
    30    13    46 1   
    31    14    23 1   
    32    14    47 1   
    33    14    48 1   
    34    14    49 1   
    35    15    16 1   
    36    15    50 1   
    37    16    17 1   
    38    16    51 1   
    39    16    52 1   
    40    17    18 1   
    41    17    24 1   
    42    17    53 1   
    43    18    25 1   
    44    18    54 1   
    45    18    55 1   
    46    19    20 ar  
    47    19    56 1   
    48    20    21 ar  
    49    20    57 1   
    50    21    58 1   
    51    23    59 1   
    52    24    60 1   
    53    25    26 1   
    54    25    61 1   
    55    26    27 2   
    56    26    28 2   
    57    26    29 1   
    58    29    30 ar  
    59    29    34 ar  
    60    30    31 ar  
    61    31    32 ar  
    62    31    62 1   
    63    32    33 ar  
    64    32    63 1   
    65    33    34 ar  
    66    33    64 1   
    67    34    65 1   
@<TRIPOS>SUBSTRUCTURE
     1 I10         1 TEMP              0 ****  ****    0 ROOT
