@<TRIPOS>MOLECULE
I11
   68    70     1     0     0
SMALL
bcc


@<TRIPOS>ATOM
      1 C1           6.5300    -1.6360    -0.0960 c6         1 I11      -0.065400
      2 C2           6.2110    -0.1980    -0.4950 c6         1 I11      -0.053900
      3 C3           4.7720     0.1470    -0.1120 c6         1 I11      -0.204900
      4 C4           4.5070    -0.0710     1.3750 c6         1 I11      -0.053900
      5 C5           4.8400    -1.5110     1.7600 c6         1 I11      -0.065400
      6 C6           6.2720    -1.8750     1.3870 c6         1 I11      -0.074400
      7 S19          4.4190     1.8460    -0.6020 s6         1 I11       1.218900
      8 O43          5.2100     2.7440     0.2300 o          1 I11      -0.586300
      9 O44          4.5370     1.9230    -2.0520 o          1 I11      -0.586300
     10 N20          2.8490     2.1530    -0.2390 n7         1 I11      -0.829100
     11 C21          1.7910     1.4460    -0.9280 c3         1 I11       0.138800
     12 C22          0.5440     1.4490    -0.0580 c          1 I11       0.659100
     13 O42          0.5320     1.9540     1.0520 o          1 I11      -0.577100
     14 N23         -0.5110     0.8310    -0.6080 ns         1 I11      -0.563900
     15 C24         -1.8230     0.9000    -0.0190 c3         1 I11       0.033700
     16 C25         -2.6910    -0.2310    -0.5720 c3         1 I11      -0.109400
     17 C26         -2.1900    -1.5940    -0.1230 c3         1 I11       0.025300
     18 N27         -3.0860    -2.6280    -0.6000 nu         1 I11      -0.333100
     19 C28         -2.9360    -3.9230    -0.3600 cc         1 I11       0.443900
     20 C29         -3.8910    -4.8590    -0.8340 cc         1 I11      -0.333600
     21 C30         -3.7280    -6.1830    -0.5790 cd         1 I11       0.133500
     22 N31         -2.6660    -6.6240     0.1200 na         1 I11      -0.514800
     23 C32         -1.7370    -5.7760     0.5880 cd         1 I11       0.133500
     24 C33         -1.8360    -4.4350     0.3710 cc         1 I11      -0.333600
     25 C34         -2.4570     2.2700    -0.3270 c          1 I11       0.656100
     26 O41         -2.0090     2.9340    -1.2500 o          1 I11      -0.583100
     27 N35         -3.4940     2.6680     0.4300 n          1 I11      -0.467800
     28 C36         -4.1980     3.9080     0.1290 c6         1 I11       0.093000
     29 C37         -5.6460     3.6200    -0.2450 c6         1 I11      -0.097400
     30 C38         -6.3440     2.8390     0.8630 c6         1 I11      -0.076400
     31 C39         -5.5500     1.5860     1.2190 c6         1 I11      -0.097400
     32 C40         -4.0990     1.9340     1.5310 c6         1 I11       0.093000
     33 H11          5.9160    -2.3210    -0.6890 hc         1 I11       0.038200
     34 H12          7.5700    -1.8540    -0.3440 hc         1 I11       0.038200
     35 H21          6.3600    -0.0660    -1.5680 hc         1 I11       0.057950
     36 H22          6.8990     0.4820     0.0170 hc         1 I11       0.057950
     37 H3           4.0870    -0.4700    -0.7030 h1         1 I11       0.074700
     38 H41          5.1250     0.6150     1.9600 hc         1 I11       0.057950
     39 H42          3.4630     0.1420     1.6190 hc         1 I11       0.057950
     40 H51          4.1450    -2.1920     1.2590 hc         1 I11       0.038200
     41 H52          4.6800    -1.6380     2.8330 hc         1 I11       0.038200
     42 H61          6.4720    -2.9180     1.6410 hc         1 I11       0.047700
     43 H62          6.9670    -1.2700     1.9780 hc         1 I11       0.047700
     44 H20          2.6620     2.3560     0.7370 hn         1 I11       0.465800
     45 H211         2.0440     0.4050    -1.1550 h1         1 I11       0.069700
     46 H212         1.5590     1.9310    -1.8790 h1         1 I11       0.069700
     47 H23         -0.4550     0.5740    -1.5820 hn         1 I11       0.321500
     48 H24         -1.7080     0.7710     1.0590 h1         1 I11       0.093700
     49 H251        -3.7190    -0.0980    -0.2310 hc         1 I11       0.072200
     50 H252        -2.7170    -0.1740    -1.6640 hc         1 I11       0.072200
     51 H261        -1.1820    -1.7750    -0.5020 h1         1 I11       0.072700
     52 H262        -2.1400    -1.6230     0.9700 h1         1 I11       0.072700
     53 H27         -3.9100    -2.3400    -1.1060 hn         1 I11       0.311700
     54 H29         -4.7550    -4.5300    -1.3930 ha         1 I11       0.186500
     55 H30         -4.4290    -6.9320    -0.9150 h4         1 I11       0.198000
     56 H31         -2.5660    -7.6130     0.2990 hn         1 I11       0.492800
     57 H32         -0.9180    -6.2130     1.1380 h4         1 I11       0.198000
     58 H33         -1.0650    -3.7910     0.7680 ha         1 I11       0.186500
     59 H361        -4.1650     4.5420     1.0210 h1         1 I11       0.061200
     60 H362        -3.6800     4.4360    -0.6670 h1         1 I11       0.061200
     61 H371        -6.1610     4.5650    -0.4350 hc         1 I11       0.047700
     62 H372        -5.6670     3.0510    -1.1790 hc         1 I11       0.047700
     63 H381        -6.4290     3.4730     1.7510 hc         1 I11       0.052700
     64 H382        -7.3600     2.5730     0.5660 hc         1 I11       0.052700
     65 H391        -5.9870     1.0830     2.0840 hc         1 I11       0.047700
     66 H392        -5.5860     0.8760     0.3860 hc         1 I11       0.047700
     67 H401        -3.5320     1.0380     1.7740 h1         1 I11       0.061200
     68 H402        -4.0630     2.5710     2.4210 h1         1 I11       0.061200
@<TRIPOS>BOND
     1     1     2 1   
     2     1     6 1   
     3     1    33 1   
     4     1    34 1   
     5     2     3 1   
     6     2    35 1   
     7     2    36 1   
     8     3     4 1   
     9     3     7 1   
    10     3    37 1   
    11     4     5 1   
    12     4    38 1   
    13     4    39 1   
    14     5     6 1   
    15     5    40 1   
    16     5    41 1   
    17     6    42 1   
    18     6    43 1   
    19     7     8 2   
    20     7     9 2   
    21     7    10 1   
    22    10    11 1   
    23    10    44 1   
    24    11    12 1   
    25    11    45 1   
    26    11    46 1   
    27    12    13 2   
    28    12    14 1   
    29    14    15 1   
    30    14    47 1   
    31    15    16 1   
    32    15    25 1   
    33    15    48 1   
    34    16    17 1   
    35    16    49 1   
    36    16    50 1   
    37    17    18 1   
    38    17    51 1   
    39    17    52 1   
    40    18    19 2   
    41    18    53 1   
    42    19    20 1   
    43    19    24 1   
    44    20    21 2   
    45    20    54 1   
    46    21    22 1   
    47    21    55 1   
    48    22    23 1   
    49    22    56 1   
    50    23    24 2   
    51    23    57 1   
    52    24    58 1   
    53    25    26 2   
    54    25    27 1   
    55    27    28 1   
    56    27    32 1   
    57    28    29 1   
    58    28    59 1   
    59    28    60 1   
    60    29    30 1   
    61    29    61 1   
    62    29    62 1   
    63    30    31 1   
    64    30    63 1   
    65    30    64 1   
    66    31    32 1   
    67    31    65 1   
    68    31    66 1   
    69    32    67 1   
    70    32    68 1   
@<TRIPOS>SUBSTRUCTURE
     1 I11         1 TEMP              0 ****  ****    0 ROOT
