@<TRIPOS>MOLECULE
I11
   68    70     1     0     0
SMALL
No Charge or Current Charge


@<TRIPOS>ATOM
      1 C1           6.5570    -1.6140    -0.9410 c6         1 I11      -0.065400
      2 C2           6.3090    -0.1970    -0.3690 c6         1 I11      -0.053900
      3 C3           4.8400    -0.0350     0.1250 c6         1 I11      -0.315700
      4 C4           4.4890    -1.1430     1.1700 c6         1 I11      -0.053900
      5 C5           4.7490    -2.5570     0.5920 c6         1 I11      -0.065400
      6 C6           6.2080    -2.7060     0.0980 c6         1 I11      -0.074400
      7 S19          4.5360     1.6700     0.7350 s6         1 I11       1.188100
      8 O43          5.2530     1.8950     1.9910 o          1 I11      -0.515500
      9 O44          4.6660     2.6270    -0.3660 o          1 I11      -0.515500
     10 N20          2.9200     1.6460     1.1400 n7         1 I11      -0.884300
     11 C21          1.8930     1.4690     0.0620 c3         1 I11       0.138800
     12 C22          0.4540     1.1920     0.5910 c          1 I11       0.592100
     13 O42          0.2370     0.6810     1.6840 o          1 I11      -0.577100
     14 N23         -0.5730     1.5480    -0.2630 ns         1 I11      -0.496900
     15 C24         -2.0200     1.3840     0.0210 c3         1 I11       0.033700
     16 C25         -2.5480     0.0220    -0.5130 c3         1 I11      -0.109400
     17 C26         -1.9190    -1.2100     0.1700 c3         1 I11       0.054600
     18 N27         -2.5260    -2.4500    -0.3300 nu         1 I11      -0.412700
     19 C28         -2.2090    -3.7380     0.0390 cc         1 I11       0.443900
     20 C29         -2.8900    -4.8100    -0.5590 cc         1 I11      -0.383600
     21 C30         -2.6170    -6.1200    -0.2320 cd         1 I11       0.083500
     22 N31         -1.6150    -6.3600     0.7410 na         1 I11      -0.570000
     23 C32         -0.9060    -5.3050     1.3680 cd         1 I11       0.083500
     24 C33         -1.2200    -4.0160     1.0010 cc         1 I11      -0.383600
     25 C34         -2.8310     2.5890    -0.5640 c          1 I11       0.589100
     26 O41         -2.2980     3.3910    -1.3260 o          1 I11      -0.583100
     27 N35         -4.2170     2.6870    -0.2770 n          1 I11      -0.400800
     28 C36         -5.0060     3.7760    -0.9320 c6         1 I11       0.093000
     29 C37         -6.5390     3.5830    -0.8740 c6         1 I11      -0.097400
     30 C38         -7.0150     3.3070     0.5620 c6         1 I11      -0.076400
     31 C39         -6.2800     2.0710     1.1070 c6         1 I11      -0.097400
     32 C40         -4.7450     2.2550     1.0580 c6         1 I11       0.093000
     33 H11          5.9520    -1.7570    -1.8470 hc         1 I11       0.038200
     34 H12          7.6070    -1.7130    -1.2470 hc         1 I11       0.038200
     35 H21          6.5350     0.5500    -1.1430 hc         1 I11       0.057950
     36 H22          7.0090    -0.0090     0.4580 hc         1 I11       0.057950
     37 H3           4.1780    -0.1420    -0.7430 h1         1 I11       0.074700
     38 H41          5.0870    -1.0070     2.0830 hc         1 I11       0.057950
     39 H42          3.4350    -1.0810     1.4720 hc         1 I11       0.057950
     40 H51          4.0560    -2.7490    -0.2390 hc         1 I11       0.038200
     41 H52          4.5360    -3.3160     1.3570 hc         1 I11       0.038200
     42 H61          6.3510    -3.7010    -0.3450 hc         1 I11       0.047700
     43 H62          6.8970    -2.6410     0.9510 hc         1 I11       0.047700
     44 H20          2.8900     0.8400     1.7640 hn         1 I11       0.521000
     45 H211         2.1370     0.6260    -0.5970 h1         1 I11       0.069700
     46 H212         1.8480     2.3670    -0.5680 h1         1 I11       0.069700
     47 H23         -0.3110     2.0010    -1.1340 hn         1 I11       0.321500
     48 H24         -2.1570     1.4180     1.1090 h1         1 I11       0.093700
     49 H251        -3.6350    -0.0250    -0.3800 hc         1 I11       0.072200
     50 H252        -2.3660    -0.0310    -1.5950 hc         1 I11       0.072200
     51 H261        -0.8390    -1.2280    -0.0270 h1         1 I11       0.072700
     52 H262        -2.0670    -1.1370     1.2570 h1         1 I11       0.072700
     53 H27         -3.2510    -2.3760    -1.0370 hn         1 I11       0.362000
     54 H29         -3.6510    -4.5910    -1.3000 ha         1 I11       0.236500
     55 H30         -3.1250    -6.9800    -0.6750 h4         1 I11       0.248000
     56 H31         -1.3960    -7.3270     0.9990 hn         1 I11       0.548000
     57 H32         -0.1450    -5.5620     2.1100 h4         1 I11       0.248000
     58 H33         -0.6940    -3.1900     1.4650 ha         1 I11       0.236500
     59 H361        -4.7490     4.7300    -0.4490 h1         1 I11       0.061200
     60 H362        -4.7100     3.8610    -1.9880 h1         1 I11       0.061200
     61 H371        -7.0410     4.4740    -1.2740 hc         1 I11       0.047700
     62 H372        -6.8250     2.7450    -1.5250 hc         1 I11       0.047700
     63 H381        -6.8190     4.1790     1.2020 hc         1 I11       0.052700
     64 H382        -8.1010     3.1390     0.5760 hc         1 I11       0.052700
     65 H391        -6.5960     1.8700     2.1400 hc         1 I11       0.047700
     66 H392        -6.5590     1.1860     0.5180 hc         1 I11       0.047700
     67 H401        -4.2870     1.3080     1.3720 h1         1 I11       0.061200
     68 H402        -4.4560     3.0110     1.8020 h1         1 I11       0.061200
@<TRIPOS>BOND
     1     1     2 1   
     2     1     6 1   
     3     1    33 1   
     4     1    34 1   
     5     2     3 1   
     6     2    35 1   
     7     2    36 1   
     8     3     4 1   
     9     3     7 1   
    10     3    37 1   
    11     4     5 1   
    12     4    38 1   
    13     4    39 1   
    14     5     6 1   
    15     5    40 1   
    16     5    41 1   
    17     6    42 1   
    18     6    43 1   
    19     7     8 2   
    20     7     9 2   
    21     7    10 1   
    22    10    11 1   
    23    10    44 1   
    24    11    12 1   
    25    11    45 1   
    26    11    46 1   
    27    12    13 2   
    28    12    14 1   
    29    14    15 1   
    30    14    47 1   
    31    15    16 1   
    32    15    25 1   
    33    15    48 1   
    34    16    17 1   
    35    16    49 1   
    36    16    50 1   
    37    17    18 1   
    38    17    51 1   
    39    17    52 1   
    40    18    19 2   
    41    18    53 1   
    42    19    20 1   
    43    19    24 1   
    44    20    21 2   
    45    20    54 1   
    46    21    22 1   
    47    21    55 1   
    48    22    23 1   
    49    22    56 1   
    50    23    24 2   
    51    23    57 1   
    52    24    58 1   
    53    25    26 2   
    54    25    27 1   
    55    27    28 1   
    56    27    32 1   
    57    28    29 1   
    58    28    59 1   
    59    28    60 1   
    60    29    30 1   
    61    29    61 1   
    62    29    62 1   
    63    30    31 1   
    64    30    63 1   
    65    30    64 1   
    66    31    32 1   
    67    31    65 1   
    68    31    66 1   
    69    32    67 1   
    70    32    68 1   
@<TRIPOS>SUBSTRUCTURE
     1 I11         1 TEMP              0 ****  ****    0 ROOT
