@<TRIPOS>MOLECULE
I12
   90    91     1     0     0
SMALL
abcg2


@<TRIPOS>ATOM
      1 N1          -9.2410     0.2080    -1.5220 nc         1 I12      -0.351300
      2 C1          -9.3670    -0.3840    -0.3690 cd         1 I12       0.220500
      3 C2         -10.7180    -0.4410     0.0380 cd         1 I12      -0.200000
      4 C3         -11.3800     0.1690    -0.9760 cc         1 I12       0.170300
      5 C4         -12.8080     0.4600    -1.2270 c3         1 I12      -0.134400
      6 O1         -10.4900     0.5530    -1.9030 os         1 I12      -0.061700
      7 C5          -8.1920    -0.9160     0.3770 c          1 I12       0.528600
      8 O2          -8.3570    -1.4700     1.4540 o          1 I12      -0.596100
      9 N2          -7.0090    -0.7340    -0.2160 ns         1 I12      -0.482900
     10 C6          -5.7670    -1.2020     0.3490 c3         1 I12       0.038700
     11 C7          -4.6380    -0.3770    -0.2610 c          1 I12       0.591100
     12 O3          -4.7510     0.1460    -1.3610 o          1 I12      -0.607100
     13 C8          -5.5240    -2.6870     0.0670 c3         1 I12      -0.110100
     14 N3          -3.5240    -0.3320     0.4760 ns         1 I12      -0.492900
     15 C9          -2.3090     0.3150     0.0390 c3         1 I12       0.039700
     16 C10         -2.3370     1.8410     0.3030 c3         1 I12      -0.073700
     17 C11         -2.4540     2.1900     1.7820 c3         1 I12      -0.090100
     18 C12         -1.1560     2.5560    -0.3430 c3         1 I12      -0.090100
     19 C13         -1.1470    -0.3660     0.7510 c          1 I12       0.596100
     20 O4          -1.2660    -0.8070     1.8850 o          1 I12      -0.617100
     21 N4          -0.0020    -0.4040     0.0580 ns         1 I12      -0.491900
     22 C14          1.2310    -0.9430     0.5900 c3         1 I12       0.034700
     23 C15          1.3760    -2.4330     0.2570 c3         1 I12      -0.089400
     24 C16          2.6670    -3.0950     0.7430 c3         1 I12      -0.060700
     25 C17          2.8130    -3.0240     2.2600 c3         1 I12      -0.087600
     26 C18          2.7050    -4.5450     0.2720 c3         1 I12      -0.087600
     27 C19          2.3810    -0.1580    -0.0300 c          1 I12       0.593100
     28 O5           2.4390     0.0050    -1.2400 o          1 I12      -0.597100
     29 N5           3.2970     0.2980     0.8350 ns         1 I12      -0.498900
     30 C20          4.5440     0.9240     0.4300 c3         1 I12       0.134900
     31 C21          5.6190    -0.1210     0.4080 c2         1 I12      -0.177200
     32 C22          6.3170    -0.4470    -0.6760 ce         1 I12      -0.245200
     33 C23          7.3510    -1.5000    -0.6280 c          1 I12       0.593300
     34 O6           7.6430    -2.1430     0.3530 o          1 I12      -0.500000
     35 O7           7.9290    -1.6560    -1.8110 os         1 I12      -0.440100
     36 C24          8.9680    -2.6400    -1.9310 c3         1 I12       0.167600
     37 C25          9.4420    -2.6350    -3.3640 c3         1 I12      -0.097100
     38 C26          4.8700     2.0670     1.3940 c3         1 I12      -0.062400
     39 C27          6.1960     2.7670     1.1290 c5         1 I12      -0.154700
     40 C28          6.5620     3.8100     2.1850 c5         1 I12      -0.092400
     41 C29          7.4440     4.8060     1.4300 c5         1 I12       0.101000
     42 N6           6.9480     4.6820     0.0760 ns         1 I12      -0.513900
     43 C30          6.2620     3.5550    -0.1720 c          1 I12       0.562000
     44 O8           5.7980     3.2240    -1.2520 o          1 I12      -0.551000
     45 H2         -11.1290    -0.8660     0.9370 ha         1 I12       0.169000
     46 H41        -12.9720     1.5270    -1.3810 hc         1 I12       0.064033
     47 H42        -13.1660    -0.0650    -2.1120 hc         1 I12       0.064033
     48 H43        -13.4030     0.1400    -0.3760 hc         1 I12       0.064033
     49 HN2         -6.9690    -0.2870    -1.1210 hn         1 I12       0.359500
     50 H6          -5.7910    -1.0420     1.4290 h1         1 I12       0.081700
     51 H81         -6.3330    -3.2850     0.4830 hc         1 I12       0.052700
     52 H82         -5.4720    -2.8730    -1.0060 hc         1 I12       0.052700
     53 H83         -4.5920    -3.0210     0.5220 hc         1 I12       0.052700
     54 HN3         -3.5200    -0.7470     1.3960 hn         1 I12       0.341500
     55 H9          -2.2110     0.1640    -1.0400 h1         1 I12       0.082700
     56 H10         -3.2440     2.1920    -0.1990 hc         1 I12       0.069700
     57 H111        -1.5420     1.9540     2.3320 hc         1 I12       0.039033
     58 H112        -2.6370     3.2590     1.8960 hc         1 I12       0.039033
     59 H113        -3.2820     1.6670     2.2620 hc         1 I12       0.039033
     60 H121        -1.0690     2.3120    -1.4040 hc         1 I12       0.039033
     61 H122        -1.2850     3.6360    -0.2650 hc         1 I12       0.039033
     62 H123        -0.2090     2.3070     0.1380 hc         1 I12       0.039033
     63 HN4         -0.0020    -0.1240    -0.9110 hn         1 I12       0.339500
     64 H14          1.2110    -0.8030     1.6720 h1         1 I12       0.081700
     65 H151         0.5200    -2.9540     0.6970 hc         1 I12       0.059200
     66 H152         1.2910    -2.5500    -0.8270 hc         1 I12       0.059200
     67 H16          3.5220    -2.5790     0.2890 hc         1 I12       0.052700
     68 H171         1.9590    -3.4920     2.7540 hc         1 I12       0.034533
     69 H172         3.7140    -3.5440     2.5880 hc         1 I12       0.034533
     70 H173         2.8830    -2.0000     2.6280 hc         1 I12       0.034533
     71 H181         2.6240    -4.6170    -0.8140 hc         1 I12       0.034533
     72 H182         3.6370    -5.0290     0.5690 hc         1 I12       0.034533
     73 H183         1.8810    -5.1170     0.7060 hc         1 I12       0.034533
     74 HN5          3.1630     0.1210     1.8190 hn         1 I12       0.315500
     75 H20          4.4030     1.3260    -0.5710 h1         1 I12       0.117700
     76 H21          5.8110    -0.6330     1.3490 ha         1 I12       0.186000
     77 H22          6.1480     0.0550    -1.6220 ha         1 I12       0.217000
     78 H241         8.5800    -3.6220    -1.6520 h1         1 I12       0.047200
     79 H242         9.7840    -2.3950    -1.2480 h1         1 I12       0.047200
     80 H251        10.2380    -3.3690    -3.4800 hc         1 I12       0.047367
     81 H252         8.6400    -2.9010    -4.0520 hc         1 I12       0.047367
     82 H253         9.8410    -1.6620    -3.6510 hc         1 I12       0.047367
     83 H261         4.0530     2.7910     1.3610 hc         1 I12       0.051200
     84 H262         4.8960     1.6730     2.4160 hc         1 I12       0.051200
     85 H27          6.9970     2.0190     1.0710 hc         1 I12       0.081700
     86 H281         5.6580     4.3110     2.5390 hc         1 I12       0.058700
     87 H282         7.0660     3.3810     3.0490 hc         1 I12       0.058700
     88 H291         7.3360     5.8260     1.7960 h1         1 I12       0.047200
     89 H292         8.5020     4.5350     1.4910 h1         1 I12       0.047200
     90 HN6          7.2220     5.3110    -0.6630 hn         1 I12       0.330500
@<TRIPOS>BOND
     1     1     2 2   
     2     1     6 1   
     3     2     3 1   
     4     2     7 1   
     5     3     4 2   
     6     3    45 1   
     7     4     5 1   
     8     4     6 1   
     9     5    46 1   
    10     5    47 1   
    11     5    48 1   
    12     7     8 2   
    13     7     9 1   
    14     9    10 1   
    15     9    49 1   
    16    10    11 1   
    17    10    13 1   
    18    10    50 1   
    19    11    12 2   
    20    11    14 1   
    21    13    51 1   
    22    13    52 1   
    23    13    53 1   
    24    14    15 1   
    25    14    54 1   
    26    15    16 1   
    27    15    19 1   
    28    15    55 1   
    29    16    17 1   
    30    16    18 1   
    31    16    56 1   
    32    17    57 1   
    33    17    58 1   
    34    17    59 1   
    35    18    60 1   
    36    18    61 1   
    37    18    62 1   
    38    19    20 2   
    39    19    21 1   
    40    21    22 1   
    41    21    63 1   
    42    22    23 1   
    43    22    27 1   
    44    22    64 1   
    45    23    24 1   
    46    23    65 1   
    47    23    66 1   
    48    24    25 1   
    49    24    26 1   
    50    24    67 1   
    51    25    68 1   
    52    25    69 1   
    53    25    70 1   
    54    26    71 1   
    55    26    72 1   
    56    26    73 1   
    57    27    28 2   
    58    27    29 1   
    59    29    30 1   
    60    29    74 1   
    61    30    31 1   
    62    30    38 1   
    63    30    75 1   
    64    31    32 2   
    65    31    76 1   
    66    32    33 1   
    67    32    77 1   
    68    33    34 2   
    69    33    35 1   
    70    35    36 1   
    71    36    37 1   
    72    36    78 1   
    73    36    79 1   
    74    37    80 1   
    75    37    81 1   
    76    37    82 1   
    77    38    39 1   
    78    38    83 1   
    79    38    84 1   
    80    39    40 1   
    81    39    43 1   
    82    39    85 1   
    83    40    41 1   
    84    40    86 1   
    85    40    87 1   
    86    41    42 1   
    87    41    88 1   
    88    41    89 1   
    89    42    43 1   
    90    42    90 1   
    91    43    44 2   
@<TRIPOS>SUBSTRUCTURE
     1 I12         1 TEMP              0 ****  ****    0 ROOT
