@<TRIPOS>MOLECULE
I13
   54    55     1     0     0
SMALL
No Charge or Current Charge


@<TRIPOS>ATOM
      1 C1           1.4010     2.7830     0.7490 c3         1 I13       0.201700
      2 C2           1.0340     4.2870     0.6330 c3         1 I13      -0.104600
      3 C3           1.5300     2.4070     2.2500 c3         1 I13      -0.104600
      4 C4          -0.9670     1.8670     0.4500 c          1 I13       0.665100
      5 C5          -3.0160     0.6070    -0.4480 ca         1 I13       0.009000
      6 C6          -3.3920    -0.2770    -1.4760 ca         1 I13      -0.128000
      7 C7          -4.7220    -0.7510    -1.5840 ca         1 I13      -0.132200
      8 N1           0.3600     1.9840     0.0910 ns         1 I13      -0.515900
      9 N2          -1.6580     1.0280    -0.4090 ns         1 I13      -0.167000
     10 N3          -5.0790    -1.6920    -2.6830 no         1 I13       0.695200
     11 C9          -5.3170     0.5700     0.3740 ca         1 I13      -0.085000
     12 C8          -5.6890    -0.3140    -0.6520 ca         1 I13       0.129000
     13 O1          -4.5820    -1.4820    -3.7980 o          1 I13      -0.385000
     14 O2          -5.6700    -2.7380    -2.3830 o          1 I13      -0.385000
     15 Cl          -7.3830    -0.8000    -0.7530 cl         1 I13      -0.141000
     16 C10         -3.9920     1.0270     0.4820 ca         1 I13      -0.095000
     17 O           -1.4600     2.4370     1.4120 o          1 I13      -0.619100
     18 C12          2.7310     2.4280     0.0380 ca         1 I13      -0.114300
     19 C17          3.1630     1.0790     0.0240 ca         1 I13      -0.072000
     20 C16          4.3570     0.6850    -0.6210 ca         1 I13      -0.127900
     21 C15          5.1550     1.6760    -1.2280 ca         1 I13      -0.086000
     22 C14          4.7440     3.0160    -1.2280 ca         1 I13      -0.117000
     23 C13          3.5420     3.3920    -0.6080 ca         1 I13      -0.086000
     24 C18          4.8160    -0.7470    -0.5800 ce         1 I13       0.418900
     25 C19          5.5340    -1.3060    -1.8030 c3         1 I13      -0.155400
     26 N4           4.4660    -1.4860     0.4350 n2         1 I13      -0.330700
     27 O3           5.0840    -2.7570     0.5070 os         1 I13      -0.319000
     28 C47          4.6150    -3.4760     1.6680 c3         1 I13       0.164600
     29 C48          5.2950    -4.8730     1.6980 c3         1 I13       0.145800
     30 N5           6.7750    -4.8170     1.8330 n8         1 I13      -0.997200
     31 H1           0.0950     4.5130     1.1500 hc         1 I13       0.051533
     32 H2           1.8090     4.9150     1.0870 hc         1 I13       0.051533
     33 H3           0.9130     4.5810    -0.4170 hc         1 I13       0.051533
     34 H4           1.6120     1.3230     2.3880 hc         1 I13       0.051533
     35 H5           2.4240     2.8720     2.6820 hc         1 I13       0.051533
     36 H6           0.6680     2.7540     2.8310 hc         1 I13       0.051533
     37 H7          -2.6440    -0.6080    -2.1940 ha         1 I13       0.142000
     38 H8           0.6410     1.4720    -0.7340 hn         1 I13       0.311500
     39 H9          -1.0930     0.6400    -1.1520 hn         1 I13       0.152000
     40 H10         -6.0640     0.9090     1.0880 ha         1 I13       0.141000
     41 H11         -3.7500     1.7100     1.2900 ha         1 I13       0.162000
     42 H12          2.5500     0.3220     0.5100 ha         1 I13       0.135000
     43 H13          6.1030     1.4170    -1.6950 ha         1 I13       0.118000
     44 H14          5.3640     3.7710    -1.7060 ha         1 I13       0.118000
     45 H15          3.2690     4.4430    -0.6360 ha         1 I13       0.119000
     46 H16          6.5880    -1.5070    -1.5800 hc         1 I13       0.055033
     47 H17          5.0760    -2.2450    -2.1340 hc         1 I13       0.055033
     48 H18          5.4960    -0.6210    -2.6570 hc         1 I13       0.055033
     49 H19          4.8550    -2.9320     2.5910 h1         1 I13       0.048200
     50 H20          3.5260    -3.6120     1.6240 h1         1 I13       0.048200
     51 H21          4.8900    -5.4530     2.5390 h1         1 I13       0.036700
     52 H22          5.0470    -5.4070     0.7710 h1         1 I13       0.036700
     53 H23          7.1620    -5.7570     1.6830 hn         1 I13       0.398000
     54 H24          7.1480    -4.2730     1.0450 hn         1 I13       0.398000
@<TRIPOS>BOND
     1     1     2 1   
     2     1     3 1   
     3     1     8 1   
     4     1    18 1   
     5     2    31 1   
     6     2    32 1   
     7     2    33 1   
     8     3    34 1   
     9     3    35 1   
    10     3    36 1   
    11     4     8 1   
    12     4     9 1   
    13     4    17 2   
    14     5     6 ar  
    15     5     9 1   
    16     5    16 ar  
    17     6     7 ar  
    18     6    37 1   
    19     7    10 1   
    20     7    12 ar  
    21     8    38 1   
    22     9    39 1   
    23    10    13 1   
    24    10    14 1   
    25    11    12 ar  
    26    11    16 ar  
    27    11    40 1   
    28    12    15 1   
    29    16    41 1   
    30    18    19 ar  
    31    18    23 ar  
    32    19    20 ar  
    33    19    42 1   
    34    20    21 ar  
    35    20    24 1   
    36    21    22 ar  
    37    21    43 1   
    38    22    23 ar  
    39    22    44 1   
    40    23    45 1   
    41    24    25 1   
    42    24    26 2   
    43    25    46 1   
    44    25    47 1   
    45    25    48 1   
    46    26    27 1   
    47    27    28 1   
    48    28    29 1   
    49    28    49 1   
    50    28    50 1   
    51    29    30 1   
    52    29    51 1   
    53    29    52 1   
    54    30    53 1   
    55    30    54 1   
@<TRIPOS>SUBSTRUCTURE
     1 I13         1 TEMP              0 ****  ****    0 ROOT
