@<TRIPOS>MOLECULE
I13
   54    55     1     0     0
SMALL
abcg2


@<TRIPOS>ATOM
      1 C1           1.4370     2.7980     0.6560 c3         1 I13       0.201700
      2 C2           1.0180     4.2540     0.4460 c3         1 I13      -0.104600
      3 C3           1.5620     2.5050     2.1580 c3         1 I13      -0.104600
      4 C4          -0.8160     1.7310     0.3660 c          1 I13       0.665100
      5 C5          -2.8210     0.4860    -0.4010 ca         1 I13       0.009000
      6 C6          -3.2050    -0.6020    -1.1830 ca         1 I13      -0.128000
      7 C7          -4.5040    -1.0750    -1.1490 ca         1 I13      -0.132200
      8 N1           0.4770     1.8980     0.0050 ns         1 I13      -0.515900
      9 N2          -1.5020     0.8930    -0.4950 ns         1 I13      -0.167000
     10 N3          -4.8000    -2.2380    -1.9710 no         1 I13       0.695200
     11 C9          -5.0940     0.6270     0.3970 ca         1 I13      -0.085000
     12 C8          -5.4730    -0.4740    -0.3540 ca         1 I13       0.129000
     13 O1          -4.2820    -2.2950    -3.0600 o          1 I13      -0.385000
     14 O2          -5.5280    -3.0820    -1.5120 o          1 I13      -0.385000
     15 CL          -7.1220    -0.9670    -0.3260 cl         1 I13      -0.141000
     16 C10         -3.7960     1.1050     0.3880 ca         1 I13      -0.095000
     17 O           -1.3390     2.2380     1.3450 o          1 I13      -0.619100
     18 C12          2.7920     2.4840     0.0210 ca         1 I13      -0.114300
     19 C17          3.2170     1.1610    -0.0420 ca         1 I13      -0.072000
     20 C16          4.4600     0.8110    -0.5700 ca         1 I13      -0.127900
     21 C15          5.2930     1.8250    -1.0440 ca         1 I13      -0.086000
     22 C14          4.8820     3.1470    -0.9830 ca         1 I13      -0.117000
     23 C13          3.6410     3.4780    -0.4570 ca         1 I13      -0.086000
     24 C18          4.9020    -0.6010    -0.6010 ce         1 I13       0.418900
     25 C19          6.0160    -1.0120    -1.5160 c3         1 I13      -0.155400
     26 N4           4.2920    -1.3870     0.1980 n2         1 I13      -0.330700
     27 O3           4.7470    -2.6660     0.1650 os         1 I13      -0.319000
     28 C47          3.9380    -3.5070     0.9780 c3         1 I13       0.164600
     29 C48          4.6450    -4.8350     1.1140 c3         1 I13       0.145800
     30 N5           5.8770    -4.7040     1.8750 n8         1 I13      -0.997200
     31 H1           0.0280     4.4200     0.8680 hc         1 I13       0.051533
     32 H2           1.7030     4.9410     0.9420 hc         1 I13       0.051533
     33 H3           0.9820     4.5110    -0.6140 hc         1 I13       0.051533
     34 H4           1.7920     1.4550     2.3360 hc         1 I13       0.051533
     35 H5           2.3770     3.1010     2.5700 hc         1 I13       0.051533
     36 H6           0.6530     2.7580     2.6970 hc         1 I13       0.051533
     37 H7          -2.4770    -1.0970    -1.8120 ha         1 I13       0.142000
     38 H8           0.7440     1.5830    -0.9140 hn         1 I13       0.311500
     39 H9          -0.9600     0.4160    -1.2000 hn         1 I13       0.152000
     40 H10         -5.8320     1.1330     1.0040 ha         1 I13       0.141000
     41 H11         -3.5610     1.9650     0.9920 ha         1 I13       0.162000
     42 H12          2.5690     0.3740     0.3240 ha         1 I13       0.135000
     43 H13          6.2680     1.5940    -1.4500 ha         1 I13       0.118000
     44 H14          5.5350     3.9290    -1.3480 ha         1 I13       0.118000
     45 H15          3.3500     4.5190    -0.4270 ha         1 I13       0.119000
     46 H16          6.9820    -0.9180    -1.0150 hc         1 I13       0.055033
     47 H17          5.9140    -2.0470    -1.8320 hc         1 I13       0.055033
     48 H18          6.0450    -0.3870    -2.4060 hc         1 I13       0.055033
     49 H19          3.7940    -3.0530     1.9630 h1         1 I13       0.048200
     50 H20          2.9550    -3.6490     0.5180 h1         1 I13       0.048200
     51 H21          3.9680    -5.4990     1.6570 h1         1 I13       0.036700
     52 H22          4.7760    -5.2780     0.1170 h1         1 I13       0.036700
     53 H23          6.2930    -5.6170     2.0010 hn         1 I13       0.398000
     54 H24          6.5510    -4.1660     1.3460 hn         1 I13       0.398000
@<TRIPOS>BOND
     1     1     2 1   
     2     1     3 1   
     3     1     8 1   
     4     1    18 1   
     5     2    31 1   
     6     2    32 1   
     7     2    33 1   
     8     3    34 1   
     9     3    35 1   
    10     3    36 1   
    11     4     8 1   
    12     4     9 1   
    13     4    17 2   
    14     5     6 ar  
    15     5     9 1   
    16     5    16 ar  
    17     6     7 ar  
    18     6    37 1   
    19     7    10 1   
    20     7    12 ar  
    21     8    38 1   
    22     9    39 1   
    23    10    13 1   
    24    10    14 1   
    25    11    12 ar  
    26    11    16 ar  
    27    11    40 1   
    28    12    15 1   
    29    16    41 1   
    30    18    19 ar  
    31    18    23 ar  
    32    19    20 ar  
    33    19    42 1   
    34    20    21 ar  
    35    20    24 1   
    36    21    22 ar  
    37    21    43 1   
    38    22    23 ar  
    39    22    44 1   
    40    23    45 1   
    41    24    25 1   
    42    24    26 2   
    43    25    46 1   
    44    25    47 1   
    45    25    48 1   
    46    26    27 1   
    47    27    28 1   
    48    28    29 1   
    49    28    49 1   
    50    28    50 1   
    51    29    30 1   
    52    29    51 1   
    53    29    52 1   
    54    30    53 1   
    55    30    54 1   
@<TRIPOS>SUBSTRUCTURE
     1 I13         1 TEMP              0 ****  ****    0 ROOT
