@<TRIPOS>MOLECULE
I14
   48    50     1     0     0
SMALL
bcc


@<TRIPOS>ATOM
      1 C02        -10.6540   -33.3360     3.0970 ca         1 I14       0.767200
      2 C03        -10.6680   -34.7420     3.1700 ca         1 I14      -0.374400
      3 C04        -11.6560   -35.3760     2.4200 ca         1 I14       0.475800
      4 C07        -13.6370   -37.9170     2.8970 c3         1 I14       0.112400
      5 C09        -15.6180   -39.1490     3.0070 c3         1 I14       0.125700
      6 C10        -10.4850   -36.9580     3.4420 cc         1 I14      -0.091100
      7 C11         -9.9150   -35.7680     3.8290 cd         1 I14       0.025100
      8 C12         -8.8180   -35.5990     4.6970 ch         1 I14      -0.105300
      9 C13         -7.8860   -35.4120     5.4450 cg         1 I14      -0.126000
     10 C14         -6.8020   -35.2020     6.3400 ca         1 I14       0.059000
     11 C15         -6.3690   -33.8920     6.5710 ca         1 I14      -0.133000
     12 C16         -5.3170   -33.6480     7.4490 ca         1 I14       0.070600
     13 C18         -5.1530   -31.1710     7.2290 c          1 I14       0.677100
     14 C19         -4.3320   -30.0220     7.7570 c3         1 I14      -0.182100
     15 C21         -4.7140   -34.7340     8.0870 ca         1 I14      -0.179000
     16 C22         -5.1510   -36.0250     7.8500 ca         1 I14      -0.101000
     17 C23         -6.1970   -36.2960     6.9760 ca         1 I14      -0.079300
     18 C24         -6.6610   -37.6980     6.7240 c3         1 I14      -0.042800
     19 C26        -12.4520   -33.4590     1.6770 ca         1 I14       0.707900
     20 N01         -9.7740   -32.5880     3.7740 nv         1 I14      -0.953500
     21 N05        -11.5250   -36.7210     2.5910 na         1 I14      -0.150100
     22 N17         -4.8160   -32.3790     7.7510 ns         1 I14      -0.473100
     23 N25        -12.5700   -34.7720     1.6610 nb         1 I14      -0.760000
     24 N27        -11.5640   -32.7200     2.3380 nb         1 I14      -0.827000
     25 O08        -14.4220   -38.9160     2.3070 os         1 I14      -0.408600
     26 O20         -6.0210   -31.0150     6.3870 o          1 I14      -0.586100
     27 H062       -11.8450   -38.6570     1.9460 h1         1 I14       0.078200
     28 H061       -12.6880   -37.4120     1.0240 h1         1 I14       0.078200
     29 H071       -14.1900   -36.9690     2.9720 h1         1 I14       0.036200
     30 H072       -13.3330   -38.1970     3.9160 h1         1 I14       0.036200
     31 H093       -16.1640   -39.9350     2.4860 h1         1 I14       0.031033
     32 H091       -15.4350   -39.4780     4.0360 h1         1 I14       0.031033
     33 H092       -16.2500   -38.2550     3.0460 h1         1 I14       0.031033
     34 H101       -10.2110   -37.9640     3.7150 h4         1 I14       0.173000
     35 H151        -6.8630   -33.0810     6.0620 ha         1 I14       0.166000
     36 H192        -4.9570   -29.1370     7.8530 hc         1 I14       0.064367
     37 H193        -3.8640   -30.2300     8.7170 hc         1 I14       0.064367
     38 H191        -3.5410   -29.7920     7.0420 hc         1 I14       0.064367
     39 H211        -3.8940   -34.5690     8.7760 ha         1 I14       0.127000
     40 H221        -4.6620   -36.8440     8.3620 ha         1 I14       0.132000
     41 H243        -6.5230   -37.9820     5.6790 hc         1 I14       0.044700
     42 H241        -6.1100   -38.4080     7.3380 hc         1 I14       0.044700
     43 H242        -7.7230   -37.8160     6.9460 hc         1 I14       0.044700
     44 H261       -13.1660   -32.9050     1.0770 h5         1 I14       0.044100
     45 H011        -9.7320   -31.5970     3.6060 hn         1 I14       0.447800
     46 H012        -9.0030   -33.0120     4.2590 hn         1 I14       0.447800
     47 H171        -4.0750   -32.3740     8.4340 hn         1 I14       0.316500
     48 C06        -12.4030   -37.7240     2.0280 c3         1 I14       0.047300
@<TRIPOS>BOND
     1     1     2 ar  
     2     1    20 1   
     3     1    24 ar  
     4     2     3 ar  
     5     2     7 1   
     6     3    21 1   
     7     3    23 ar  
     8     4    25 1   
     9     4    29 1   
    10     4    30 1   
    11     4    48 1   
    12     5    25 1   
    13     5    31 1   
    14     5    32 1   
    15     5    33 1   
    16     6     7 2   
    17     6    21 1   
    18     6    34 1   
    19     7     8 1   
    20     8     9 3   
    21     9    10 1   
    22    10    11 ar  
    23    10    17 ar  
    24    11    12 ar  
    25    11    35 1   
    26    12    15 ar  
    27    12    22 1   
    28    13    14 1   
    29    13    22 1   
    30    13    26 2   
    31    14    36 1   
    32    14    37 1   
    33    14    38 1   
    34    15    16 ar  
    35    15    39 1   
    36    16    17 ar  
    37    16    40 1   
    38    17    18 1   
    39    18    41 1   
    40    18    42 1   
    41    18    43 1   
    42    19    23 ar  
    43    19    24 ar  
    44    19    44 1   
    45    20    45 1   
    46    20    46 1   
    47    21    48 1   
    48    22    47 1   
    49    27    48 1   
    50    28    48 1   
@<TRIPOS>SUBSTRUCTURE
     1 I14         1 TEMP              0 ****  ****    0 ROOT
