@<TRIPOS>MOLECULE
I14
   48    50     1     0     0
SMALL
No Charge or Current Charge


@<TRIPOS>ATOM
      1 C02         -9.7000   -34.6120     1.6620 ca         1 I14       0.438900
      2 C03        -10.2610   -35.5400     2.5450 ca         1 I14      -0.243800
      3 C04        -11.4090   -36.2040     2.1890 ca         1 I14       0.147500
      4 C07        -14.2180   -37.1680     3.6000 c3         1 I14       0.135600
      5 C09        -16.5900   -37.5510     3.8860 c3         1 I14       0.148900
      6 C10        -10.7990   -36.9460     4.2920 cc         1 I14      -0.141100
      7 C11         -9.8760   -36.0060     3.8620 cd         1 I14       0.025100
      8 C12         -8.7520   -35.6180     4.6350 ch         1 I14      -0.105300
      9 C13         -7.7430   -35.3060     5.2460 cg         1 I14      -0.126000
     10 C14         -6.5440   -34.9540     5.9580 ca         1 I14       0.059000
     11 C15         -6.5910   -33.8830     6.8710 ca         1 I14      -0.115000
     12 C16         -5.4400   -33.5010     7.5940 ca         1 I14      -0.022000
     13 C18         -6.3800   -31.5210     8.9430 c          1 I14       0.610100
     14 C19         -5.8940   -30.5370    10.0030 c3         1 I14      -0.182100
     15 C21         -4.2440   -34.2100     7.3880 ca         1 I14      -0.161000
     16 C22         -4.1900   -35.2790     6.4780 ca         1 I14      -0.083000
     17 C23         -5.3350   -35.6620     5.7540 ca         1 I14      -0.079300
     18 C24         -5.2440   -36.8290     4.7720 c3         1 I14      -0.042800
     19 C26        -11.4010   -35.0680     0.2000 ca         1 I14       0.181900
     20 N01         -8.5720   -33.9120     1.9320 nv         1 I14      -1.063900
     21 N05        -11.7340   -37.0490     3.2430 na         1 I14      -0.179400
     22 N17         -5.4150   -32.4320     8.5330 ns         1 I14      -0.147000
     23 N25        -12.0060   -35.9790     1.0010 nb         1 I14      -0.234000
     24 N27        -10.2710   -34.3710     0.4730 nb         1 I14      -0.301000
     25 O08        -15.3090   -38.1050     3.5380 os         1 I14      -0.455000
     26 O20         -7.5270   -31.4800     8.5140 o          1 I14      -0.586100
     27 H062       -12.7760   -38.7560     3.8840 h1         1 I14       0.078200
     28 H061       -13.0430   -38.3160     2.1880 h1         1 I14       0.078200
     29 H071       -14.3850   -36.3300     2.9100 h1         1 I14       0.036200
     30 H072       -14.1080   -36.7660     4.6160 h1         1 I14       0.036200
     31 H093       -17.3690   -38.3200     3.8160 h1         1 I14       0.031033
     32 H091       -16.5820   -37.1640     4.9130 h1         1 I14       0.031033
     33 H092       -16.8570   -36.7310     3.2070 h1         1 I14       0.031033
     34 H101       -10.8590   -37.5190     5.2110 h4         1 I14       0.223000
     35 H151        -7.5340   -33.3630     7.0060 ha         1 I14       0.148000
     36 H192        -6.6690   -29.8230    10.3050 hc         1 I14       0.064367
     37 H193        -5.5070   -31.0990    10.8600 hc         1 I14       0.064367
     38 H191        -4.9960   -30.0280     9.6340 hc         1 I14       0.064367
     39 H211        -3.3460   -33.9330     7.9350 ha         1 I14       0.109000
     40 H221        -3.2510   -35.8100     6.3370 ha         1 I14       0.114000
     41 H243        -5.4910   -36.5080     3.7530 hc         1 I14       0.044700
     42 H241        -4.2360   -37.2600     4.7430 hc         1 I14       0.044700
     43 H242        -5.9350   -37.6330     5.0490 hc         1 I14       0.044700
     44 H261       -11.8720   -34.8780    -0.7630 h5         1 I14       0.044100
     45 H011        -8.0890   -33.4600     1.1600 hn         1 I14       0.503000
     46 H012        -8.0070   -34.2070     2.7240 hn         1 I14       0.503000
     47 H171        -4.5200   -32.3140     8.9900 hn         1 I14       0.150000
     48 C06        -12.9290   -37.9110     3.2010 c3         1 I14       0.076600
@<TRIPOS>BOND
     1     1     2 ar  
     2     1    20 1   
     3     1    24 ar  
     4     2     3 ar  
     5     2     7 1   
     6     3    21 1   
     7     3    23 ar  
     8     4    25 1   
     9     4    29 1   
    10     4    30 1   
    11     4    48 1   
    12     5    25 1   
    13     5    31 1   
    14     5    32 1   
    15     5    33 1   
    16     6     7 2   
    17     6    21 1   
    18     6    34 1   
    19     7     8 1   
    20     8     9 3   
    21     9    10 1   
    22    10    11 ar  
    23    10    17 ar  
    24    11    12 ar  
    25    11    35 1   
    26    12    15 ar  
    27    12    22 1   
    28    13    14 1   
    29    13    22 1   
    30    13    26 2   
    31    14    36 1   
    32    14    37 1   
    33    14    38 1   
    34    15    16 ar  
    35    15    39 1   
    36    16    17 ar  
    37    16    40 1   
    38    17    18 1   
    39    18    41 1   
    40    18    42 1   
    41    18    43 1   
    42    19    23 ar  
    43    19    24 ar  
    44    19    44 1   
    45    20    45 1   
    46    20    46 1   
    47    21    48 1   
    48    22    47 1   
    49    27    48 1   
    50    28    48 1   
@<TRIPOS>SUBSTRUCTURE
     1 I14         1 TEMP              0 ****  ****    0 ROOT
