@<TRIPOS>MOLECULE
I15
   31    33     1     0     0
SMALL
bcc


@<TRIPOS>ATOM
      1 C1          -9.1000   -12.8890    15.9150 ca         1 I15      -0.224900
      2 C2          -8.2900   -12.4300    16.9610 ca         1 I15       0.110100
      3 C3          -8.5010   -13.5270    14.8170 ca         1 I15      -0.046200
      4 C4         -10.4950   -12.8780    15.6220 cc         1 I15       0.371900
      5 O5          -8.8240   -11.7680    18.0320 os         1 I15      -0.225200
      6 C6          -6.9370   -12.6370    16.8710 ca         1 I15       0.098900
      7 N7          -9.5170   -13.8420    13.9850 na         1 I15      -0.000100
      8 C8          -7.1190   -13.7280    14.7260 ca         1 I15      -0.113000
      9 N9         -10.7000   -13.4560    14.4630 nd         1 I15      -0.507100
     10 C10        -11.6110   -12.3260    16.4360 c3         1 I15      -0.104400
     11 C11         -9.2810   -12.4840    19.0860 ca         1 I15       0.137100
     12 C12         -6.3480   -13.2720    15.7680 ca         1 I15      -0.125000
     13 C13         -9.1880   -13.8650    19.1770 ca         1 I15      -0.126500
     14 C14         -9.8740   -11.7490    20.1060 ca         1 I15      -0.126500
     15 C15         -9.6940   -14.5020    20.3090 ca         1 I15       0.017500
     16 C16        -10.3670   -12.4100    21.2240 ca         1 I15       0.017500
     17 C17        -10.2860   -13.7940    21.3450 ca         1 I15      -0.090000
     18 C18         -9.5950   -15.9250    20.4030 cg         1 I15       0.227800
     19 C19        -10.9730   -11.6500    22.2710 cg         1 I15       0.227800
     20 N23        -11.4630   -11.0370    23.1130 n1         1 I15      -0.343800
     21 F1          -6.1490   -12.2200    17.8720 f          1 I15      -0.126900
     22 N1          -9.5160   -17.0700    20.4780 n1         1 I15      -0.343800
     23 H7          -9.4640   -14.3100    13.0950 hn         1 I15       0.333700
     24 H8          -6.6690   -14.2190    13.8740 ha         1 I15       0.150000
     25 H101       -11.7380   -12.8790    17.3690 hc         1 I15       0.055700
     26 H102       -11.4350   -11.2820    16.6980 hc         1 I15       0.055700
     27 H103       -12.5470   -12.3840    15.8850 hc         1 I15       0.055700
     28 H12         -5.2730   -13.4000    15.7540 ha         1 I15       0.158000
     29 H13         -8.7330   -14.4540    18.3920 ha         1 I15       0.164000
     30 H14         -9.9470   -10.6730    20.0250 ha         1 I15       0.164000
     31 H17        -10.6740   -14.3000    22.2160 ha         1 I15       0.160000
@<TRIPOS>BOND
     1     1     2 ar  
     2     1     3 ar  
     3     1     4 1   
     4     2     5 1   
     5     2     6 ar  
     6     3     7 1   
     7     3     8 ar  
     8     4     9 2   
     9     4    10 1   
    10     5    11 1   
    11     6    12 ar  
    12     6    21 1   
    13     7     9 1   
    14     7    23 1   
    15     8    12 ar  
    16     8    24 1   
    17    10    25 1   
    18    10    26 1   
    19    10    27 1   
    20    11    13 ar  
    21    11    14 ar  
    22    12    28 1   
    23    13    15 ar  
    24    13    29 1   
    25    14    16 ar  
    26    14    30 1   
    27    15    17 ar  
    28    15    18 1   
    29    16    17 ar  
    30    16    19 1   
    31    17    31 1   
    32    18    22 3   
    33    19    20 3   
@<TRIPOS>SUBSTRUCTURE
     1 I15         1 TEMP              0 ****  ****    0 ROOT
