@<TRIPOS>MOLECULE
I15
   31    33     1     0     0
SMALL
No Charge or Current Charge


@<TRIPOS>ATOM
      1 C1          -9.0320   -12.9050    15.9080 ca         1 I15      -0.224900
      2 C2          -8.2010   -12.3970    16.9200 ca         1 I15       0.110100
      3 C3          -8.5150   -13.5430    14.8210 ca         1 I15      -0.046200
      4 C4         -10.4650   -12.9170    15.7180 cc         1 I15       0.371900
      5 O5          -8.7200   -11.7690    18.0270 os         1 I15      -0.225200
      6 C6          -6.8020   -12.5590    16.7690 ca         1 I15       0.134000
      7 N7          -9.5760   -13.9220    14.0290 na         1 I15      -0.050400
      8 C8          -7.1380   -13.7260    14.6390 ca         1 I15      -0.095000
      9 N9         -10.8070   -13.5370    14.5770 nd         1 I15      -0.507100
     10 C10        -11.4940   -12.3200    16.6350 c3         1 I15      -0.104400
     11 C11         -9.2560   -12.4610    19.0920 ca         1 I15       0.137100
     12 C12         -6.2730   -13.2200    15.6350 ca         1 I15      -0.107000
     13 C13         -9.1650   -13.8660    19.1910 ca         1 I15      -0.108500
     14 C14         -9.9170   -11.7320    20.0930 ca         1 I15      -0.108500
     15 C15         -9.7390   -14.5340    20.2900 ca         1 I15       0.017500
     16 C16        -10.4920   -12.3930    21.1940 ca         1 I15       0.017500
     17 C17        -10.4030   -13.7960    21.2890 ca         1 I15      -0.072000
     18 C18         -9.6500   -15.9660    20.3910 cg         1 I15       0.317000
     19 C19        -11.1700   -11.6420    22.2150 cg         1 I15       0.317000
     20 N23        -11.7280   -11.0380    23.0450 n1         1 I15      -0.433000
     21 F1          -5.9580   -12.0890    17.7170 f          1 I15      -0.162000
     22 N1          -9.5750   -17.1290    20.4630 n1         1 I15      -0.433000
     23 H7          -9.5180   -14.4230    13.1430 hn         1 I15       0.384000
     24 H8          -6.7460   -14.2380    13.7620 ha         1 I15       0.132000
     25 H101       -11.6240   -12.9420    17.5270 hc         1 I15       0.055700
     26 H102       -11.1960   -11.3150    16.9540 hc         1 I15       0.055700
     27 H103       -12.4670   -12.2370    16.1380 hc         1 I15       0.055700
     28 H12         -5.1970   -13.3400    15.5340 ha         1 I15       0.140000
     29 H13         -8.6540   -14.4430    18.4240 ha         1 I15       0.146000
     30 H14         -9.9820   -10.6490    20.0080 ha         1 I15       0.146000
     31 H17        -10.8470   -14.3110    22.1400 ha         1 I15       0.142000
@<TRIPOS>BOND
     1     1     2 ar  
     2     1     3 ar  
     3     1     4 1   
     4     2     5 1   
     5     2     6 ar  
     6     3     7 1   
     7     3     8 ar  
     8     4     9 2   
     9     4    10 1   
    10     5    11 1   
    11     6    12 ar  
    12     6    21 1   
    13     7     9 1   
    14     7    23 1   
    15     8    12 ar  
    16     8    24 1   
    17    10    25 1   
    18    10    26 1   
    19    10    27 1   
    20    11    13 ar  
    21    11    14 ar  
    22    12    28 1   
    23    13    15 ar  
    24    13    29 1   
    25    14    16 ar  
    26    14    30 1   
    27    15    17 ar  
    28    15    18 1   
    29    16    17 ar  
    30    16    19 1   
    31    17    31 1   
    32    18    22 3   
    33    19    20 3   
@<TRIPOS>SUBSTRUCTURE
     1 I15         1 TEMP              0 ****  ****    0 ROOT
