@<TRIPOS>MOLECULE
I17
   61    65     1     0     0
SMALL
No Charge or Current Charge


@<TRIPOS>ATOM
      1 C26          0.1050     0.1810    -4.6840 c5         1 I17       0.081300
      2 N9          -0.6540    -0.4360    -3.5940 na         1 I17      -0.278300
      3 C4          -0.2690    -0.6320    -2.2930 ca         1 I17       0.171500
      4 N3           0.8780    -0.3250    -1.6600 nb         1 I17      -0.300000
      5 C2           0.9350    -0.6530    -0.3560 ca         1 I17       0.436900
      6 C6          -1.1570    -1.5540    -0.2810 ca         1 I17       0.480900
      7 N1          -0.0220    -1.2590     0.3720 nb         1 I17      -0.345000
      8 C5          -1.3120    -1.2440    -1.6480 ca         1 I17      -0.143600
      9 N7          -2.4000    -1.4700    -2.4840 nc         1 I17      -0.547100
     10 C8          -1.9590    -0.9650    -3.6520 cd         1 I17       0.387700
     11 N18         -2.1800    -2.1790     0.4180 nu         1 I17      -0.916100
     12 C19         -2.3290    -2.2880     1.8770 c3         1 I17       0.281100
     13 C25         -3.5880    -0.0910     2.1890 ca         1 I17      -0.090500
     14 C24         -3.7370     1.1710     2.7900 ca         1 I17      -0.116000
     15 C23         -2.7970     1.6180     3.7330 ca         1 I17      -0.104000
     16 C22         -1.7070     0.8010     4.0760 ca         1 I17      -0.116000
     17 C21         -1.5540    -0.4600     3.4730 ca         1 I17      -0.090500
     18 C20         -2.4930    -0.9150     2.5240 ca         1 I17      -0.109300
     19 N10          2.1240    -0.3270     0.2730 nu         1 I17      -0.916100
     20 C11          2.3500    -0.3020     1.7280 c6         1 I17       0.242500
     21 C14          3.5430     1.0200     4.1390 c6         1 I17       0.151500
     22 C15          4.1690    -0.2600     3.5280 c6         1 I17      -0.087900
     23 C16          3.8740    -0.3550     2.0080 c6         1 I17      -0.091900
     24 C12          1.7290     0.9820     2.3390 c6         1 I17      -0.091900
     25 C13          2.0200     1.0790     3.8590 c6         1 I17      -0.087900
     26 N17          3.8010     1.0740     5.5900 n8         1 I17      -0.988200
     27 C30          0.2860    -0.7080    -5.9390 c5         1 I17      -0.092900
     28 C29          0.9330     0.2830    -6.9480 c5         1 I17      -0.079900
     29 C27         -0.5840     1.3990    -5.3490 c5         1 I17      -0.092900
     30 C28          0.3520     1.6820    -6.5580 c5         1 I17      -0.079900
     31 H261         1.0910     0.4800    -4.3000 h1         1 I17       0.093700
     32 H81         -2.5240    -0.9470    -4.5770 h5         1 I17       0.062800
     33 H181        -3.0120    -2.3300    -0.1530 hn         1 I17       0.513000
     34 H191        -3.2130    -2.8970     2.1180 h1         1 I17       0.061200
     35 H192        -1.4570    -2.8010     2.3070 h1         1 I17       0.061200
     36 H241        -4.5830     1.8020     2.5250 ha         1 I17       0.110500
     37 H231        -2.9140     2.5950     4.1980 ha         1 I17       0.111000
     38 H221        -0.9800     1.1460     4.8070 ha         1 I17       0.110500
     39 H211        -0.7050    -1.0830     3.7440 ha         1 I17       0.113000
     40 H101         2.8040     0.1340    -0.3280 hn         1 I17       0.491000
     41 H111         1.8910    -1.1840     2.2050 h1         1 I17       0.080700
     42 H141         4.0220     1.9020     3.6830 h1         1 I17       0.059700
     43 H151         5.2560    -0.2620     3.6910 hc         1 I17       0.043450
     44 H152         3.7750    -1.1520     4.0330 hc         1 I17       0.043450
     45 H161         4.3830     0.4680     1.4870 hc         1 I17       0.049450
     46 H162         4.2950    -1.2880     1.6100 hc         1 I17       0.049450
     47 H121         2.1320     1.8700     1.8320 hc         1 I17       0.049450
     48 H122         0.6440     0.9940     2.1690 hc         1 I17       0.049450
     49 H131         1.5080     0.2590     4.3810 hc         1 I17       0.043450
     50 H132         1.5980     2.0150     4.2520 hc         1 I17       0.043450
     51 H171         3.3290     1.8990     5.9780 hn         1 I17       0.390500
     52 H172         3.3180     0.2880     6.0380 hn         1 I17       0.390500
     53 H301         0.9240    -1.5770    -5.7450 hc         1 I17       0.052950
     54 H302        -0.6730    -1.0880    -6.3130 hc         1 I17       0.052950
     55 H291         2.0250     0.2800    -6.8560 hc         1 I17       0.046450
     56 H292         0.7010     0.0130    -7.9850 hc         1 I17       0.046450
     57 H271        -1.6020     1.1620    -5.6810 hc         1 I17       0.052950
     58 H272        -0.6560     2.2570    -4.6720 hc         1 I17       0.052950
     59 H281         1.1590     2.3700    -6.2790 hc         1 I17       0.046450
     60 H282        -0.1900     2.1500    -7.3880 hc         1 I17       0.046450
     61 H251        -4.3210    -0.4300     1.4610 ha         1 I17       0.113000
@<TRIPOS>BOND
     1     1     2 1   
     2     1    27 1   
     3     1    29 1   
     4     1    31 1   
     5     2     3 1   
     6     2    10 1   
     7     3     4 ar  
     8     3     8 ar  
     9     4     5 ar  
    10     5     7 ar  
    11     5    19 1   
    12     6     7 ar  
    13     6     8 ar  
    14     6    11 1   
    15     8     9 1   
    16     9    10 2   
    17    10    32 1   
    18    11    12 1   
    19    11    33 1   
    20    12    18 1   
    21    12    34 1   
    22    12    35 1   
    23    13    14 ar  
    24    13    18 ar  
    25    13    61 1   
    26    14    15 ar  
    27    14    36 1   
    28    15    16 ar  
    29    15    37 1   
    30    16    17 ar  
    31    16    38 1   
    32    17    18 ar  
    33    17    39 1   
    34    19    20 1   
    35    19    40 1   
    36    20    23 1   
    37    20    24 1   
    38    20    41 1   
    39    21    22 1   
    40    21    25 1   
    41    21    26 1   
    42    21    42 1   
    43    22    23 1   
    44    22    43 1   
    45    22    44 1   
    46    23    45 1   
    47    23    46 1   
    48    24    25 1   
    49    24    47 1   
    50    24    48 1   
    51    25    49 1   
    52    25    50 1   
    53    26    51 1   
    54    26    52 1   
    55    27    28 1   
    56    27    53 1   
    57    27    54 1   
    58    28    30 1   
    59    28    55 1   
    60    28    56 1   
    61    29    30 1   
    62    29    57 1   
    63    29    58 1   
    64    30    59 1   
    65    30    60 1   
@<TRIPOS>SUBSTRUCTURE
     1 I17         1 TEMP              0 ****  ****    0 ROOT
