@<TRIPOS>MOLECULE
I17
   61    65     1     0     0
SMALL
bcc


@<TRIPOS>ATOM
      1 C26          0.1950     0.1040    -4.6860 c5         1 I17       0.052000
      2 N9          -0.5980    -0.4940    -3.6320 na         1 I17      -0.249000
      3 C4          -0.2410    -0.6180    -2.3220 ca         1 I17       0.499800
      4 N3           0.9020    -0.2550    -1.7500 nb         1 I17      -0.826000
      5 C2           0.9190    -0.5240    -0.4420 ca         1 I17       0.962900
      6 C6          -1.1980    -1.4290    -0.3160 ca         1 I17       0.809200
      7 N1          -0.0680    -1.0730     0.2840 nb         1 I17      -0.871000
      8 C5          -1.3320    -1.2050    -1.7000 ca         1 I17      -0.274200
      9 N7          -2.3410    -1.4390    -2.6010 nc         1 I17      -0.547100
     10 C8          -1.8680    -1.0020    -3.7310 cd         1 I17       0.387700
     11 N18         -2.1730    -2.0050     0.4020 nu         1 I17      -0.860900
     12 C19         -2.1240    -2.1530     1.8370 c3         1 I17       0.281100
     13 C25         -3.6480    -0.2460     2.4610 ca         1 I17      -0.108500
     14 C24         -3.9170     0.9300     3.1470 ca         1 I17      -0.134000
     15 C23         -2.9480     1.4970     3.9660 ca         1 I17      -0.122000
     16 C22         -1.7110     0.8800     4.0930 ca         1 I17      -0.134000
     17 C21         -1.4450    -0.2960     3.4020 ca         1 I17      -0.108500
     18 C20         -2.4090    -0.8720     2.5840 ca         1 I17      -0.109300
     19 N10          2.0720    -0.2340     0.2070 nu         1 I17      -0.860900
     20 C11          2.2330    -0.1930     1.6450 c6         1 I17       0.242500
     21 C14          3.4790     0.9430     4.0950 c6         1 I17       0.151500
     22 C15          3.9370    -0.3840     3.4980 c6         1 I17      -0.087900
     23 C16          3.6960    -0.4490     1.9950 c6         1 I17      -0.091900
     24 C12          1.7600     1.1330     2.2420 c6         1 I17      -0.091900
     25 C13          2.0100     1.1870     3.7450 c6         1 I17      -0.087900
     26 N17          3.7690     0.9650     5.5220 n8         1 I17      -0.877800
     27 C30          0.3570    -0.7660    -5.9330 c5         1 I17      -0.092900
     28 C29          0.8500     0.2180    -7.0050 c5         1 I17      -0.079900
     29 C27         -0.3670     1.4120    -5.2400 c5         1 I17      -0.092900
     30 C28          0.4740     1.6340    -6.4980 c5         1 I17      -0.079900
     31 H261         1.1770     0.2970    -4.2490 h1         1 I17       0.093700
     32 H81         -2.3970    -1.0280    -4.6720 h5         1 I17       0.062800
     33 H181        -3.0330    -2.2210    -0.0730 hn         1 I17       0.457800
     34 H191        -2.8630    -2.9110     2.1020 h1         1 I17       0.061200
     35 H192        -1.1480    -2.5400     2.1280 h1         1 I17       0.061200
     36 H241        -4.8860     1.4030     3.0450 ha         1 I17       0.128500
     37 H231        -3.1560     2.4140     4.5010 ha         1 I17       0.129000
     38 H221        -0.9490     1.3170     4.7250 ha         1 I17       0.128500
     39 H211        -0.4730    -0.7660     3.4910 ha         1 I17       0.131000
     40 H101         2.7400     0.2900    -0.3370 hn         1 I17       0.435800
     41 H111         1.6270    -0.9990     2.0670 h1         1 I17       0.080700
     42 H141         4.0720     1.7420     3.6330 h1         1 I17       0.059700
     43 H151         4.9970    -0.5390     3.7130 hc         1 I17       0.043450
     44 H152         3.3950    -1.2000     3.9910 hc         1 I17       0.043450
     45 H161         4.3220     0.3030     1.4990 hc         1 I17       0.049450
     46 H162         4.0030    -1.4220     1.6030 hc         1 I17       0.049450
     47 H121         2.2960     1.9530     1.7500 hc         1 I17       0.049450
     48 H122         0.6980     1.2730     2.0300 hc         1 I17       0.049450
     49 H131         1.4040     0.4220     4.2470 hc         1 I17       0.043450
     50 H132         1.6860     2.1510     4.1470 hc         1 I17       0.043450
     51 H171         3.4780     1.8530     5.9140 hn         1 I17       0.335300
     52 H172         3.2000     0.2660     5.9870 hn         1 I17       0.335300
     53 H301         1.0370    -1.6020    -5.7710 hc         1 I17       0.052950
     54 H302        -0.6130    -1.1820    -6.2190 hc         1 I17       0.052950
     55 H291         1.9290     0.1350    -7.1400 hc         1 I17       0.046450
     56 H292         0.3970    -0.0010    -7.9720 hc         1 I17       0.046450
     57 H271        -1.4210     1.2760    -5.5000 hc         1 I17       0.052950
     58 H272        -0.3050     2.2330    -4.5260 hc         1 I17       0.052950
     59 H281         1.3770     2.1940    -6.2470 hc         1 I17       0.046450
     60 H282        -0.0600     2.2160    -7.2480 hc         1 I17       0.046450
     61 H251        -4.4110    -0.6810     1.8260 ha         1 I17       0.131000
@<TRIPOS>BOND
     1     1     2 1   
     2     1    27 1   
     3     1    29 1   
     4     1    31 1   
     5     2     3 1   
     6     2    10 1   
     7     3     4 ar  
     8     3     8 ar  
     9     4     5 ar  
    10     5     7 ar  
    11     5    19 1   
    12     6     7 ar  
    13     6     8 ar  
    14     6    11 1   
    15     8     9 1   
    16     9    10 2   
    17    10    32 1   
    18    11    12 1   
    19    11    33 1   
    20    12    18 1   
    21    12    34 1   
    22    12    35 1   
    23    13    14 ar  
    24    13    18 ar  
    25    13    61 1   
    26    14    15 ar  
    27    14    36 1   
    28    15    16 ar  
    29    15    37 1   
    30    16    17 ar  
    31    16    38 1   
    32    17    18 ar  
    33    17    39 1   
    34    19    20 1   
    35    19    40 1   
    36    20    23 1   
    37    20    24 1   
    38    20    41 1   
    39    21    22 1   
    40    21    25 1   
    41    21    26 1   
    42    21    42 1   
    43    22    23 1   
    44    22    43 1   
    45    22    44 1   
    46    23    45 1   
    47    23    46 1   
    48    24    25 1   
    49    24    47 1   
    50    24    48 1   
    51    25    49 1   
    52    25    50 1   
    53    26    51 1   
    54    26    52 1   
    55    27    28 1   
    56    27    53 1   
    57    27    54 1   
    58    28    30 1   
    59    28    55 1   
    60    28    56 1   
    61    29    30 1   
    62    29    57 1   
    63    29    58 1   
    64    30    59 1   
    65    30    60 1   
@<TRIPOS>SUBSTRUCTURE
     1 I17         1 TEMP              0 ****  ****    0 ROOT
