@<TRIPOS>MOLECULE
I18
   34    36     1     0     0
SMALL
No Charge or Current Charge


@<TRIPOS>ATOM
      1 N1           3.0620     0.8760     0.6540 nu         1 I18      -0.907400
      2 C5           2.2600     0.9430    -0.5820 c5         1 I18       0.220800
      3 C51          0.8270     1.4830    -0.4420 ca         1 I18      -0.082300
      4 C4           2.2510    -0.5840    -0.9880 c5         1 I18       0.160800
      5 C41          0.9430    -1.2630    -0.5340 ca         1 I18      -0.068300
      6 N3           3.4670    -1.1410    -0.3360 n2         1 I18      -0.629900
      7 C2           3.8180    -0.2640     0.5270 c2         1 I18       0.581200
      8 C21          4.9830    -0.3990     1.4690 c3         1 I18      -0.130400
      9 C56          0.2020     1.6420     0.8170 ca         1 I18      -0.084500
     10 C55         -1.1200     2.1120     0.9060 ca         1 I18      -0.105000
     11 C54         -1.8300     2.4360    -0.2600 ca         1 I18       0.126000
     12 Cl5         -3.4850     3.0190    -0.1480 cl         1 I18      -0.204000
     13 C53         -1.2190     2.2940    -1.5150 ca         1 I18      -0.105000
     14 C52          0.1020     1.8230    -1.6050 ca         1 I18      -0.084500
     15 C42         -0.0500    -1.5670    -1.4900 ca         1 I18      -0.086000
     16 C43         -1.2640    -2.1600    -1.1010 ca         1 I18      -0.106000
     17 C44         -1.4960    -2.4630     0.2480 ca         1 I18       0.122000
     18 Cl4         -3.0170    -3.2000     0.7350 cl         1 I18      -0.209000
     19 C45         -0.5160    -2.1770     1.2100 ca         1 I18      -0.106000
     20 C46          0.6980    -1.5830     0.8220 ca         1 I18      -0.086000
     21 H1           3.5700     1.6980     0.9760 hn         1 I18       0.477000
     22 H2           2.7970     1.5200    -1.3490 h1         1 I18       0.044700
     23 H3           2.3470    -0.6670    -2.0800 h1         1 I18       0.078700
     24 H4           4.6590    -0.2880     2.5100 hc         1 I18       0.060367
     25 H5           5.4580    -1.3820     1.3710 hc         1 I18       0.060367
     26 H6           5.7430     0.3620     1.2630 hc         1 I18       0.060367
     27 H7           0.7330     1.3860     1.7300 ha         1 I18       0.123000
     28 H8          -1.5940     2.2220     1.8770 ha         1 I18       0.130000
     29 H9          -1.7700     2.5460    -2.4180 ha         1 I18       0.130000
     30 H10          0.5630     1.7110    -2.5840 ha         1 I18       0.123000
     31 H11          0.1140    -1.3300    -2.5390 ha         1 I18       0.120000
     32 H12         -2.0240    -2.3830    -1.8460 ha         1 I18       0.128500
     33 H13         -0.6970    -2.4110     2.2560 ha         1 I18       0.128500
     34 H14          1.4420    -1.3580     1.5810 ha         1 I18       0.120000
@<TRIPOS>BOND
     1     1     2 1   
     2     1     7 1   
     3     1    21 1   
     4     2     3 1   
     5     2     4 1   
     6     2    22 1   
     7     3     9 ar  
     8     3    14 ar  
     9     4     5 1   
    10     4     6 1   
    11     4    23 1   
    12     5    15 ar  
    13     5    20 ar  
    14     6     7 2   
    15     7     8 1   
    16     8    24 1   
    17     8    25 1   
    18     8    26 1   
    19     9    10 ar  
    20     9    27 1   
    21    10    11 ar  
    22    10    28 1   
    23    11    12 1   
    24    11    13 ar  
    25    13    14 ar  
    26    13    29 1   
    27    14    30 1   
    28    15    16 ar  
    29    15    31 1   
    30    16    17 ar  
    31    16    32 1   
    32    17    18 1   
    33    17    19 ar  
    34    19    20 ar  
    35    19    33 1   
    36    20    34 1   
@<TRIPOS>SUBSTRUCTURE
     1 I18         1 TEMP              0 ****  ****    0 ROOT
