@<TRIPOS>MOLECULE
I18
   34    36     1     0     0
SMALL
bcc


@<TRIPOS>ATOM
      1 N1           3.0000     0.9400     0.5320 nu         1 I18      -0.852200
      2 C5           2.1960     0.8810    -0.6710 c5         1 I18       0.220800
      3 C51          0.8320     1.4890    -0.5370 ca         1 I18      -0.082300
      4 C4           2.2200    -0.6720    -0.9290 c5         1 I18       0.160800
      5 C41          0.9620    -1.3630    -0.4610 ca         1 I18      -0.068300
      6 N3           3.3990    -1.1410    -0.2140 n2         1 I18      -0.629900
      7 C2           3.7640    -0.1990     0.5700 c2         1 I18       0.581200
      8 C21          4.9020    -0.2890     1.5220 c3         1 I18      -0.130400
      9 C56          0.1270     1.4510     0.6620 ca         1 I18      -0.102500
     10 C55         -1.1680     1.9350     0.7410 ca         1 I18      -0.123000
     11 C54         -1.7640     2.4650    -0.3930 ca         1 I18       0.034400
     12 CL5         -3.3890     3.0680    -0.3020 cl         1 I18      -0.112400
     13 C53         -1.0810     2.5270    -1.5960 ca         1 I18      -0.123000
     14 C52          0.2170     2.0390    -1.6560 ca         1 I18      -0.102500
     15 C42         -0.1420    -1.4180    -1.3060 ca         1 I18      -0.104000
     16 C43         -1.3450    -1.9610    -0.8860 ca         1 I18      -0.124000
     17 C44         -1.4390    -2.4660     0.4020 ca         1 I18       0.030400
     18 CL4         -2.9420    -3.1440     0.9460 cl         1 I18      -0.117400
     19 C45         -0.3510    -2.4450     1.2580 ca         1 I18      -0.124000
     20 C46          0.8450    -1.8930     0.8180 ca         1 I18      -0.104000
     21 H1           3.4180     1.8210     0.7880 hn         1 I18       0.421800
     22 H2           2.7180     1.3700    -1.5030 h1         1 I18       0.044700
     23 H3           2.3270    -0.8520    -2.0010 h1         1 I18       0.078700
     24 H4           4.5500    -0.1480     2.5450 hc         1 I18       0.060367
     25 H5           5.3890    -1.2570     1.4480 hc         1 I18       0.060367
     26 H6           5.6360     0.4930     1.3210 hc         1 I18       0.060367
     27 H7           0.5890     1.0320     1.5460 ha         1 I18       0.141000
     28 H8          -1.7080     1.8980     1.6780 ha         1 I18       0.148000
     29 H9          -1.5470     2.9500    -2.4750 ha         1 I18       0.148000
     30 H10          0.7530     2.0850    -2.5960 ha         1 I18       0.141000
     31 H11         -0.0710    -1.0230    -2.3120 ha         1 I18       0.138000
     32 H12         -2.1960    -1.9890    -1.5530 ha         1 I18       0.146500
     33 H13         -0.4300    -2.8500     2.2580 ha         1 I18       0.146500
     34 H14          1.6900    -1.8780     1.4930 ha         1 I18       0.138000
@<TRIPOS>BOND
     1     1     2 1   
     2     1     7 1   
     3     1    21 1   
     4     2     3 1   
     5     2     4 1   
     6     2    22 1   
     7     3     9 ar  
     8     3    14 ar  
     9     4     5 1   
    10     4     6 1   
    11     4    23 1   
    12     5    15 ar  
    13     5    20 ar  
    14     6     7 2   
    15     7     8 1   
    16     8    24 1   
    17     8    25 1   
    18     8    26 1   
    19     9    10 ar  
    20     9    27 1   
    21    10    11 ar  
    22    10    28 1   
    23    11    12 1   
    24    11    13 ar  
    25    13    14 ar  
    26    13    29 1   
    27    14    30 1   
    28    15    16 ar  
    29    15    31 1   
    30    16    17 ar  
    31    16    32 1   
    32    17    18 1   
    33    17    19 ar  
    34    19    20 ar  
    35    19    33 1   
    36    20    34 1   
@<TRIPOS>SUBSTRUCTURE
     1 I18         1 TEMP              0 ****  ****    0 ROOT
