@<TRIPOS>MOLECULE
I19
   63    66     1     0     0
SMALL
No Charge or Current Charge


@<TRIPOS>ATOM
      1 C1           0.3450    27.6370    11.9370 c3         1 I19      -0.106600
      2 C2           0.2180    27.9800    10.4350 c3         1 I19       0.080300
      3 C3           0.5860    26.7870     9.5270 c3         1 I19      -0.106600
      4 N1          -1.0810    28.5970    10.0580 na         1 I19      -0.129500
      5 C4          -2.3650    28.1340    10.3440 cc         1 I19       0.426800
      6 C5          -2.7210    26.8780    11.0930 c3         1 I19      -0.122400
      7 N2          -3.2880    28.9460     9.8510 nd         1 I19      -0.685000
      8 C6          -2.6090    29.9680     9.2280 cd         1 I19       0.292900
      9 C7          -1.2580    29.8010     9.3870 cc         1 I19      -0.301500
     10 C8          -0.3040    30.6440     8.6450 ca         1 I19       0.235500
     11 N3           0.7870    30.0560     8.1050 nb         1 I19      -0.233000
     12 C9           1.6310    30.8370     7.4020 ca         1 I19       0.380900
     13 N4           2.7290    30.2410     6.7980 nu         1 I19      -0.936900
     14 C10          3.3520    29.0000     6.9470 ca         1 I19       0.324000
     15 C11          3.4250    28.3630     8.1960 ca         1 I19      -0.145500
     16 C12          4.0680    27.1210     8.3290 ca         1 I19      -0.053000
     17 C13          4.6410    26.4880     7.2040 ca         1 I19      -0.160600
     18 C14          4.6080    27.1560     5.9620 ca         1 I19      -0.053000
     19 C15          3.9670    28.4020     5.8380 ca         1 I19      -0.145500
     20 C16          5.3440    25.1510     7.3080 c          1 I19       0.617700
     21 O1           6.3550    24.9270     6.6520 o          1 I19      -0.605100
     22 N5           4.8620    24.1950     8.2250 n          1 I19      -0.400800
     23 C17          3.4370    24.1010     8.6230 c5         1 I19       0.113000
     24 C18          3.2860    22.5910     8.9550 c5         1 I19      -0.099400
     25 C19          4.6800    22.2300     9.5580 c5         1 I19       0.161500
     26 C20          5.5900    22.9320     8.4910 c5         1 I19       0.100000
     27 N6           4.8350    22.8890    10.9160 n3         1 I19      -0.707600
     28 C21          3.8570    22.4470    11.9430 c3         1 I19       0.146600
     29 C22          6.2100    22.8390    11.4760 c3         1 I19       0.146600
     30 N7           1.4980    32.1520     7.1630 nb         1 I19      -0.221000
     31 C23          0.4250    32.7540     7.7100 ca         1 I19       0.122900
     32 C24         -0.5130    32.0340     8.4690 ca         1 I19       0.012000
     33 F1          -1.5650    32.6810     9.0240 f          1 I19      -0.156000
     34 H11C         1.3930    27.4380    12.1900 hc         1 I19       0.048033
     35 H12C         0.0030    28.4740    12.5560 hc         1 I19       0.048033
     36 H13C        -0.2300    26.7440    12.2020 hc         1 I19       0.048033
     37 H2           0.9810    28.7480    10.2680 h1         1 I19       0.084700
     38 H31C         0.5950    27.0920     8.4740 hc         1 I19       0.048033
     39 H32C         1.5830    26.4100     9.7790 hc         1 I19       0.048033
     40 H33C        -0.1240    25.9610     9.6380 hc         1 I19       0.048033
     41 H51C        -2.1040    26.0300    10.7780 hc         1 I19       0.055367
     42 H52C        -2.5940    27.0220    12.1720 hc         1 I19       0.055367
     43 H53C        -3.7670    26.6020    10.9180 hc         1 I19       0.055367
     44 H6          -3.1350    30.7430     8.6840 h4         1 I19       0.045100
     45 H4           3.1120    30.8050     6.0400 hn         1 I19       0.515000
     46 H11          3.0090    28.8430     9.0750 ha         1 I19       0.123000
     47 H15          3.9380    28.8940     4.8700 ha         1 I19       0.123000
     48 H12          4.1480    26.6730     9.3160 ha         1 I19       0.126000
     49 H14          5.0680    26.7040     5.0850 ha         1 I19       0.126000
     50 H171         3.2380    24.7060     9.5150 h1         1 I19       0.051700
     51 H172         2.7540    24.4180     7.8230 h1         1 I19       0.051700
     52 H201         5.6440    22.3280     7.5750 h1         1 I19       0.059200
     53 H202         6.6190    23.1040     8.8270 h1         1 I19       0.059200
     54 H181         2.4310    22.3790     9.6020 hc         1 I19       0.057200
     55 H182         3.1160    22.0170     8.0370 hc         1 I19       0.057200
     56 H19          4.8530    21.1460     9.6070 h1         1 I19       0.041700
     57 H211         4.0550    22.9350    12.9060 h1         1 I19       0.032200
     58 H212         2.8290    22.7060    11.6640 h1         1 I19       0.032200
     59 H213         3.9140    21.3600    12.0930 h1         1 I19       0.032200
     60 H221         6.9250    23.3840    10.8490 h1         1 I19       0.032200
     61 H222         6.2430    23.3070    12.4700 h1         1 I19       0.032200
     62 H223         6.5530    21.8010    11.5770 h1         1 I19       0.032200
     63 H23          0.3170    33.8240     7.5380 h4         1 I19       0.042100
@<TRIPOS>BOND
     1     1     2 1   
     2     1    34 1   
     3     1    35 1   
     4     1    36 1   
     5     2     3 1   
     6     2     4 1   
     7     2    37 1   
     8     3    38 1   
     9     3    39 1   
    10     3    40 1   
    11     4     5 1   
    12     4     9 1   
    13     5     6 1   
    14     5     7 2   
    15     6    41 1   
    16     6    42 1   
    17     6    43 1   
    18     7     8 1   
    19     8     9 2   
    20     8    44 1   
    21     9    10 1   
    22    10    11 ar  
    23    10    32 ar  
    24    11    12 ar  
    25    12    13 1   
    26    12    30 ar  
    27    13    14 1   
    28    13    45 1   
    29    14    15 ar  
    30    14    19 ar  
    31    15    16 ar  
    32    15    46 1   
    33    16    17 ar  
    34    16    48 1   
    35    17    18 ar  
    36    17    20 1   
    37    18    19 ar  
    38    18    49 1   
    39    19    47 1   
    40    20    21 2   
    41    20    22 1   
    42    22    23 1   
    43    22    26 1   
    44    23    24 1   
    45    23    50 1   
    46    23    51 1   
    47    24    25 1   
    48    24    54 1   
    49    24    55 1   
    50    25    26 1   
    51    25    27 1   
    52    25    56 1   
    53    26    52 1   
    54    26    53 1   
    55    27    28 1   
    56    27    29 1   
    57    28    57 1   
    58    28    58 1   
    59    28    59 1   
    60    29    60 1   
    61    29    61 1   
    62    29    62 1   
    63    30    31 ar  
    64    31    32 ar  
    65    31    63 1   
    66    32    33 1   
@<TRIPOS>SUBSTRUCTURE
     1 I19         1 TEMP              0 ****  ****    0 ROOT
