@<TRIPOS>MOLECULE
I19
   63    66     1     0     0
SMALL
bcc


@<TRIPOS>ATOM
      1 C1           0.4120    28.9580    12.1130 c3         1 I19      -0.106600
      2 C2           0.4630    28.4140    10.6910 c3         1 I19       0.051000
      3 C3           1.1030    27.0370    10.5970 c3         1 I19      -0.106600
      4 N1          -0.8580    28.4620    10.0490 na         1 I19      -0.150900
      5 C4          -1.9620    27.7560    10.3960 cc         1 I19       0.426800
      6 C5          -2.0050    26.6300    11.3660 c3         1 I19      -0.122400
      7 N2          -3.0270    28.1750     9.7430 nd         1 I19      -0.685000
      8 C6          -2.6120    29.1970     8.9640 cd         1 I19       0.358200
      9 C7          -1.2650    29.4050     9.1230 cc         1 I19      -0.316100
     10 C8          -0.4090    30.3110     8.3730 ca         1 I19       0.563800
     11 N3           0.8070    29.9160     7.9970 nb         1 I19      -0.759000
     12 C9           1.5330    30.7350     7.2500 ca         1 I19       0.906900
     13 N4           2.7650    30.3360     6.8170 nu         1 I19      -0.743300
     14 C10          3.4030    29.1200     7.0500 ca         1 I19       0.185600
     15 C11          3.4120    28.5120     8.3040 ca         1 I19      -0.163500
     16 C12          4.0560    27.3010     8.4820 ca         1 I19      -0.071000
     17 C13          4.7330    26.6850     7.4340 ca         1 I19      -0.160600
     18 C14          4.7810    27.3300     6.2010 ca         1 I19      -0.071000
     19 C15          4.1080    28.5220     6.0030 ca         1 I19      -0.163500
     20 C16          5.4770    25.4060     7.6190 c          1 I19       0.684700
     21 O1           6.6190    25.2820     7.1870 o          1 I19      -0.605100
     22 N5           4.8500    24.4200     8.2790 n          1 I19      -0.467800
     23 C17          3.4130    24.3130     8.5280 c5         1 I19       0.113000
     24 C18          3.2090    22.8080     8.5860 c5         1 I19      -0.099400
     25 C19          4.4870    22.3080     9.2590 c5         1 I19       0.161500
     26 C20          5.5260    23.1460     8.5120 c5         1 I19       0.100000
     27 N6           4.5220    22.5880    10.6910 n3         1 I19      -0.707600
     28 C21          3.3540    22.0990    11.3990 c3         1 I19       0.146600
     29 C22          5.7160    22.0400    11.3070 c3         1 I19       0.146600
     30 N7           1.1600    31.9460     6.8300 nb         1 I19      -0.747000
     31 C23         -0.0370    32.3550     7.2080 ca         1 I19       0.451200
     32 C24         -0.8580    31.5690     7.9860 ca         1 I19      -0.153700
     33 F1          -2.0600    32.0260     8.3600 f          1 I19      -0.120900
     34 H11C         1.4270    29.0460    12.4990 hc         1 I19       0.048033
     35 H12C        -0.0390    29.9500    12.1330 hc         1 I19       0.048033
     36 H13C        -0.1420    28.3140    12.7950 hc         1 I19       0.048033
     37 H2           1.0820    29.0890    10.1070 h1         1 I19       0.084700
     38 H31C         1.1250    26.6830     9.5660 hc         1 I19       0.048033
     39 H32C         2.1320    27.1050    10.9510 hc         1 I19       0.048033
     40 H33C         0.6010    26.2920    11.2110 hc         1 I19       0.048033
     41 H51C        -1.4980    25.7440    10.9820 hc         1 I19       0.055367
     42 H52C        -1.5540    26.8760    12.3250 hc         1 I19       0.055367
     43 H53C        -3.0460    26.3670    11.5420 hc         1 I19       0.055367
     44 H6          -3.2840    29.7080     8.2920 h4         1 I19       0.045100
     45 H4           3.1510    30.9150     6.0870 hn         1 I19       0.459800
     46 H11          2.9380    28.9910     9.1460 ha         1 I19       0.141000
     47 H15          4.1200    28.9910     5.0270 ha         1 I19       0.141000
     48 H12          4.0560    26.8530     9.4670 ha         1 I19       0.144000
     49 H14          5.3240    26.8850     5.3770 ha         1 I19       0.144000
     50 H171         3.1330    24.7810     9.4750 h1         1 I19       0.051700
     51 H172         2.8350    24.7850     7.7340 h1         1 I19       0.051700
     52 H201         5.7840    22.6640     7.5650 h1         1 I19       0.059200
     53 H202         6.4550    23.2960     9.0610 h1         1 I19       0.059200
     54 H181         2.2790    22.5230     9.0730 hc         1 I19       0.057200
     55 H182         3.1760    22.4020     7.5730 hc         1 I19       0.057200
     56 H19          4.6430    21.2350     9.0620 h1         1 I19       0.041700
     57 H211         3.4840    22.2760    12.4670 h1         1 I19       0.032200
     58 H212         2.4510    22.6290    11.1000 h1         1 I19       0.032200
     59 H213         3.1790    21.0210    11.2610 h1         1 I19       0.032200
     60 H221         6.6220    22.4620    10.8760 h1         1 I19       0.032200
     61 H222         5.7240    22.2800    12.3700 h1         1 I19       0.032200
     62 H223         5.7830    20.9440    11.2130 h1         1 I19       0.032200
     63 H23         -0.3580    33.3400     6.8900 h4         1 I19       0.042100
@<TRIPOS>BOND
     1     1     2 1   
     2     1    34 1   
     3     1    35 1   
     4     1    36 1   
     5     2     3 1   
     6     2     4 1   
     7     2    37 1   
     8     3    38 1   
     9     3    39 1   
    10     3    40 1   
    11     4     5 1   
    12     4     9 1   
    13     5     6 1   
    14     5     7 2   
    15     6    41 1   
    16     6    42 1   
    17     6    43 1   
    18     7     8 1   
    19     8     9 2   
    20     8    44 1   
    21     9    10 1   
    22    10    11 ar  
    23    10    32 ar  
    24    11    12 ar  
    25    12    13 1   
    26    12    30 ar  
    27    13    14 1   
    28    13    45 1   
    29    14    15 ar  
    30    14    19 ar  
    31    15    16 ar  
    32    15    46 1   
    33    16    17 ar  
    34    16    48 1   
    35    17    18 ar  
    36    17    20 1   
    37    18    19 ar  
    38    18    49 1   
    39    19    47 1   
    40    20    21 2   
    41    20    22 1   
    42    22    23 1   
    43    22    26 1   
    44    23    24 1   
    45    23    50 1   
    46    23    51 1   
    47    24    25 1   
    48    24    54 1   
    49    24    55 1   
    50    25    26 1   
    51    25    27 1   
    52    25    56 1   
    53    26    52 1   
    54    26    53 1   
    55    27    28 1   
    56    27    29 1   
    57    28    57 1   
    58    28    58 1   
    59    28    59 1   
    60    29    60 1   
    61    29    61 1   
    62    29    62 1   
    63    30    31 ar  
    64    31    32 ar  
    65    31    63 1   
    66    32    33 1   
@<TRIPOS>SUBSTRUCTURE
     1 I19         1 TEMP              0 ****  ****    0 ROOT
