@<TRIPOS>MOLECULE
I1A
   59    60     1     0     0
SMALL
bcc


@<TRIPOS>ATOM
      1 C01         -3.3540    12.5840   -11.2110 ca         1 I1A      -0.145000
      2 C02         -2.7800    12.5710    -9.9390 ca         1 I1A      -0.122000
      3 C03         -2.3720    13.7380    -9.3130 ca         1 I1A      -0.119000
      4 C04         -2.5660    14.9430    -9.9850 ca         1 I1A       0.025600
      5 C05         -3.1690    14.9700   -11.2540 ca         1 I1A      -0.075800
      6 C06         -3.5470    13.7800   -11.8740 ca         1 I1A      -0.096000
      7 C08         -2.5750    17.0890   -10.7560 cc         1 I1A       0.030400
      8 C09         -3.1990    16.3340   -11.7030 cd         1 I1A      -0.146400
      9 C10         -2.2460    18.5390   -10.8270 c3         1 I1A      -0.040900
     10 C11         -3.7840    16.8330   -12.9870 c3         1 I1A       0.013800
     11 C12         -5.3170    17.0830   -12.9510 c3         1 I1A      -0.150000
     12 C13         -6.1470    15.7890   -13.1000 c3         1 I1A      -0.035200
     13 C14         -6.0410    15.1390   -14.4470 c2         1 I1A      -0.172200
     14 C15         -5.9510    13.8290   -14.6450 c2         1 I1A      -0.216000
     15 C19         -0.9700    15.9660    -6.2830 c3         1 I1A       0.199800
     16 C20         -1.5710    17.1160    -5.4870 c3         1 I1A      -0.111433
     17 C21         -1.2640    14.6450    -5.5840 c3         1 I1A      -0.111433
     18 C22          0.5290    16.1250    -6.4870 c3         1 I1A      -0.111433
     19 C23         -5.6840    17.7530   -11.6300 c          1 I1A       0.656100
     20 C26         -5.5540    19.7780   -10.4370 c3         1 I1A       0.129200
     21 C27         -5.7040    18.0400   -14.0780 c          1 I1A       0.656100
     22 C30         -7.5040    19.2850   -14.9540 c3         1 I1A       0.129200
     23 N07         -2.2080    16.2610    -9.6800 n          1 I1A      -0.245200
     24 O17         -1.6500    15.8130    -7.5710 os         1 I1A      -0.434900
     25 O18         -1.1310    17.8270    -8.4130 o          1 I1A      -0.557000
     26 O24         -6.2370    17.2080   -10.7130 o          1 I1A      -0.520000
     27 O25         -5.2920    19.0150   -11.6160 os         1 I1A      -0.419400
     28 O28         -4.9770    18.4020   -14.9640 o          1 I1A      -0.520000
     29 O29         -6.9730    18.3980   -13.9680 os         1 I1A      -0.419400
     30 H1          -3.6440    11.6530   -11.6810 ha         1 I1A       0.130000
     31 H2          -2.6310    11.6280    -9.4290 ha         1 I1A       0.128000
     32 H3          -1.9070    13.6810    -8.3440 ha         1 I1A       0.146000
     33 H4          -3.9670    13.7960   -12.8710 ha         1 I1A       0.138000
     34 H5          -2.6790    19.1160   -10.0110 hc         1 I1A       0.060033
     35 H6          -1.1700    18.7030   -10.8040 hc         1 I1A       0.060033
     36 H7          -2.6220    18.9500   -11.7590 hc         1 I1A       0.060033
     37 H8          -3.5820    16.1230   -13.7940 hc         1 I1A       0.070700
     38 H9          -3.2820    17.7560   -13.2710 hc         1 I1A       0.070700
     39 H10         -7.1980    16.0300   -12.9190 hc         1 I1A       0.076200
     40 H11         -5.8620    15.0830   -12.3190 hc         1 I1A       0.076200
     41 H12         -6.1060    15.7810   -15.3220 ha         1 I1A       0.121000
     42 H13         -5.9320    13.4110   -15.6430 ha         1 I1A       0.114500
     43 H14         -5.9060    13.1260   -13.8220 ha         1 I1A       0.114500
     44 H15         -1.1670    17.0850    -4.4740 hc         1 I1A       0.053033
     45 H16         -1.3360    18.0890    -5.9090 hc         1 I1A       0.053033
     46 H17         -2.6550    17.0150    -5.4110 hc         1 I1A       0.053033
     47 H18         -0.8020    14.6490    -4.5980 hc         1 I1A       0.053033
     48 H19         -2.3360    14.4940    -5.4540 hc         1 I1A       0.053033
     49 H20         -0.8570    13.7990    -6.1410 hc         1 I1A       0.053033
     50 H21          1.0240    16.0820    -5.5160 hc         1 I1A       0.053033
     51 H22          0.9290    15.3140    -7.0970 hc         1 I1A       0.053033
     52 H23          0.7930    17.0750    -6.9480 hc         1 I1A       0.053033
     53 H24         -5.1110    20.7540   -10.6080 h1         1 I1A       0.049367
     54 H25         -6.6260    19.8880   -10.2740 h1         1 I1A       0.049367
     55 H26         -5.1010    19.3220    -9.5580 h1         1 I1A       0.049367
     56 H27         -8.5440    19.4420   -14.6840 h1         1 I1A       0.049367
     57 H28         -6.9790    20.2390   -14.9500 h1         1 I1A       0.049367
     58 H29         -7.4510    18.8460   -15.9500 h1         1 I1A       0.049367
     59 C16         -1.6040    16.7260    -8.5120 c          1 I1A       0.789100
@<TRIPOS>BOND
     1     1     2 ar  
     2     1     6 ar  
     3     1    30 1   
     4     2     3 ar  
     5     2    31 1   
     6     3     4 ar  
     7     3    32 1   
     8     4     5 ar  
     9     4    23 1   
    10     5     6 ar  
    11     5     8 1   
    12     6    33 1   
    13     7     8 2   
    14     7     9 1   
    15     7    23 1   
    16     8    10 1   
    17     9    34 1   
    18     9    35 1   
    19     9    36 1   
    20    10    11 1   
    21    10    37 1   
    22    10    38 1   
    23    11    12 1   
    24    11    19 1   
    25    11    21 1   
    26    12    13 1   
    27    12    39 1   
    28    12    40 1   
    29    13    14 2   
    30    13    41 1   
    31    14    42 1   
    32    14    43 1   
    33    15    16 1   
    34    15    17 1   
    35    15    18 1   
    36    15    24 1   
    37    16    44 1   
    38    16    45 1   
    39    16    46 1   
    40    17    47 1   
    41    17    48 1   
    42    17    49 1   
    43    18    50 1   
    44    18    51 1   
    45    18    52 1   
    46    19    26 2   
    47    19    27 1   
    48    20    27 1   
    49    20    53 1   
    50    20    54 1   
    51    20    55 1   
    52    21    28 2   
    53    21    29 1   
    54    22    29 1   
    55    22    56 1   
    56    22    57 1   
    57    22    58 1   
    58    23    59 1   
    59    24    59 1   
    60    25    59 2   
@<TRIPOS>SUBSTRUCTURE
     1 I1A         1 TEMP              0 ****  ****    0 ROOT
