@<TRIPOS>MOLECULE
I1A
   59    60     1     0     0
SMALL
No Charge or Current Charge


@<TRIPOS>ATOM
      1 C01         -2.9680    12.5760   -11.6750 ca         1 I1A      -0.127000
      2 C02         -2.3790    12.4500   -10.3980 ca         1 I1A      -0.104000
      3 C03         -2.0840    13.5940    -9.6280 ca         1 I1A      -0.101000
      4 C04         -2.4150    14.8640   -10.1490 ca         1 I1A      -0.067000
      5 C05         -2.9840    14.9740   -11.4070 ca         1 I1A      -0.075800
      6 C06         -3.2650    13.8490   -12.1950 ca         1 I1A      -0.078000
      7 C08         -2.6110    17.1020   -10.6580 cc         1 I1A       0.030400
      8 C09         -3.1540    16.3870   -11.7190 cd         1 I1A      -0.146400
      9 C10         -2.4430    18.6040   -10.5770 c3         1 I1A      -0.040900
     10 C11         -3.7710    16.9350   -12.9970 c3         1 I1A       0.013800
     11 C12         -5.2980    17.2900   -12.8990 c3         1 I1A      -0.150000
     12 C13         -6.1800    16.0330   -12.5760 c3         1 I1A      -0.035200
     13 C14         -6.2380    14.9720   -13.6650 c2         1 I1A      -0.222200
     14 C15         -6.3450    13.6530   -13.4400 c2         1 I1A      -0.316000
     15 C19         -0.9770    15.6240    -6.1880 c3         1 I1A       0.223000
     16 C20         -2.0330    16.3560    -5.3200 c3         1 I1A      -0.111433
     17 C21         -0.8300    14.1620    -5.7120 c3         1 I1A      -0.111433
     18 C22          0.4080    16.3200    -6.1830 c3         1 I1A      -0.111433
     19 C23         -5.4960    18.3620   -11.8060 c          1 I1A       0.607100
     20 C26         -5.4020    20.7350   -11.3650 c3         1 I1A       0.152400
     21 C27         -5.7860    17.9130   -14.2230 c          1 I1A       0.607100
     22 C30         -7.6160    19.0920   -15.2670 c3         1 I1A       0.152400
     23 N07         -2.2050    16.2010    -9.6460 n          1 I1A      -0.085600
     24 O17         -1.4600    15.5040    -7.5470 os         1 I1A      -0.458100
     25 O18         -1.5860    17.7480    -7.9950 o          1 I1A      -0.508000
     26 O24         -6.0160    18.1450   -10.7190 o          1 I1A      -0.471000
     27 O25         -5.1620    19.6210   -12.2440 os         1 I1A      -0.442600
     28 O28         -5.1170    17.9640   -15.2480 o          1 I1A      -0.471000
     29 O29         -7.0450    18.4530   -14.1100 os         1 I1A      -0.442600
     30 H1          -3.1770    11.6870   -12.2660 ha         1 I1A       0.112000
     31 H2          -2.1380    11.4620   -10.0110 ha         1 I1A       0.110000
     32 H3          -1.6050    13.4590    -8.6650 ha         1 I1A       0.128000
     33 H4          -3.6800    13.9500   -13.1920 ha         1 I1A       0.120000
     34 H5          -3.1120    19.0340    -9.8230 hc         1 I1A       0.060033
     35 H6          -1.4120    18.8700   -10.3160 hc         1 I1A       0.060033
     36 H7          -2.6520    19.0970   -11.5310 hc         1 I1A       0.060033
     37 H8          -3.6280    16.2100   -13.8070 hc         1 I1A       0.070700
     38 H9          -3.2140    17.8230   -13.3210 hc         1 I1A       0.070700
     39 H10         -7.2070    16.3720   -12.3840 hc         1 I1A       0.076200
     40 H11         -5.8460    15.5820   -11.6320 hc         1 I1A       0.076200
     41 H12         -6.2020    15.3410   -14.6930 ha         1 I1A       0.171000
     42 H13         -6.3890    12.9350   -14.2610 ha         1 I1A       0.164500
     43 H14         -6.3900    13.2430   -12.4300 ha         1 I1A       0.164500
     44 H15         -1.7980    16.2410    -4.2550 hc         1 I1A       0.053033
     45 H16         -2.0650    17.4300    -5.5280 hc         1 I1A       0.053033
     46 H17         -3.0340    15.9400    -5.4910 hc         1 I1A       0.053033
     47 H18         -0.4700    14.1220    -4.6770 hc         1 I1A       0.053033
     48 H19         -1.7930    13.6390    -5.7560 hc         1 I1A       0.053033
     49 H20         -0.1170    13.6170    -6.3410 hc         1 I1A       0.053033
     50 H21          0.8910    16.2010    -5.2050 hc         1 I1A       0.053033
     51 H22          1.0670    15.8810    -6.9410 hc         1 I1A       0.053033
     52 H23          0.3290    17.3960    -6.3740 hc         1 I1A       0.053033
     53 H24         -5.0800    21.6710   -11.8380 h1         1 I1A       0.049367
     54 H25         -6.4710    20.8240   -11.1310 h1         1 I1A       0.049367
     55 H26         -4.8490    20.6220   -10.4240 h1         1 I1A       0.049367
     56 H27         -8.6180    19.4730   -15.0360 h1         1 I1A       0.049367
     57 H28         -6.9970    19.9380   -15.5920 h1         1 I1A       0.049367
     58 H29         -7.7050    18.3840   -16.1010 h1         1 I1A       0.049367
     59 C16         -1.7280    16.5860    -8.3530 c          1 I1A       0.673100
@<TRIPOS>BOND
     1     1     2 ar  
     2     1     6 ar  
     3     1    30 1   
     4     2     3 ar  
     5     2    31 1   
     6     3     4 ar  
     7     3    32 1   
     8     4     5 ar  
     9     4    23 1   
    10     5     6 ar  
    11     5     8 1   
    12     6    33 1   
    13     7     8 2   
    14     7     9 1   
    15     7    23 1   
    16     8    10 1   
    17     9    34 1   
    18     9    35 1   
    19     9    36 1   
    20    10    11 1   
    21    10    37 1   
    22    10    38 1   
    23    11    12 1   
    24    11    19 1   
    25    11    21 1   
    26    12    13 1   
    27    12    39 1   
    28    12    40 1   
    29    13    14 2   
    30    13    41 1   
    31    14    42 1   
    32    14    43 1   
    33    15    16 1   
    34    15    17 1   
    35    15    18 1   
    36    15    24 1   
    37    16    44 1   
    38    16    45 1   
    39    16    46 1   
    40    17    47 1   
    41    17    48 1   
    42    17    49 1   
    43    18    50 1   
    44    18    51 1   
    45    18    52 1   
    46    19    26 2   
    47    19    27 1   
    48    20    27 1   
    49    20    53 1   
    50    20    54 1   
    51    20    55 1   
    52    21    28 2   
    53    21    29 1   
    54    22    29 1   
    55    22    56 1   
    56    22    57 1   
    57    22    58 1   
    58    23    59 1   
    59    24    59 1   
    60    25    59 2   
@<TRIPOS>SUBSTRUCTURE
     1 I1A         1 TEMP              0 ****  ****    0 ROOT
