@<TRIPOS>MOLECULE
I1B
   23    25     1     0     0
SMALL
No Charge or Current Charge


@<TRIPOS>ATOM
      1 C4          13.7330    84.1390   170.8980 ca         1 I1B      -0.052300
      2 C5          14.0380    84.5300   172.3390 c3         1 I1B      -0.051800
      3 C6          14.7380    84.0120   169.9140 ca         1 I1B      -0.007200
      4 C7          14.4160    83.7070   168.5920 ca         1 I1B      -0.162000
      5 C8          13.0880    83.4860   168.2040 ca         1 I1B      -0.068000
      6 C9          16.8030    83.9980   168.9090 cc         1 I1B       0.434800
      7 C10         16.9100    83.7690   171.0750 cc         1 I1B       0.397400
      8 N1          18.0070    83.5250   169.1710 nd         1 I1B      -0.321000
      9 N2          18.1000    83.4560   170.5550 nd         1 I1B      -0.349000
     10 C3          12.3950    83.9130   170.5070 ca         1 I1B      -0.094000
     11 N3          16.1020    84.1960   170.0500 na         1 I1B      -0.258800
     12 C1          10.6170    83.3490   168.7790 c3         1 I1B      -0.049800
     13 C2          12.0670    83.5880   169.1710 ca         1 I1B      -0.065300
     14 S1          15.8310    83.6100   167.4860 ss         1 I1B       0.030700
     15 H1          14.7950    85.3220   172.3870 hc         1 I1B       0.050700
     16 H2          13.1450    84.9090   172.8490 hc         1 I1B       0.050700
     17 H3          14.4020    83.6690   172.9110 hc         1 I1B       0.050700
     18 H4          12.8510    83.2390   167.1710 ha         1 I1B       0.130000
     19 H5          16.6110    83.7070   172.1120 h5         1 I1B       0.071100
     20 H6          11.5990    83.9970   171.2440 ha         1 I1B       0.120000
     21 H7          10.3340    82.3030   168.9500 hc         1 I1B       0.048033
     22 H8           9.9370    83.9800   169.3620 hc         1 I1B       0.048033
     23 H9          10.4460    83.5730   167.7190 hc         1 I1B       0.048033
@<TRIPOS>BOND
     1     1     2 1   
     2     1     3 ar  
     3     1    10 ar  
     4     2    15 1   
     5     2    16 1   
     6     2    17 1   
     7     3     4 ar  
     8     3    11 1   
     9     4     5 ar  
    10     4    14 1   
    11     5    13 ar  
    12     5    18 1   
    13     6     8 2   
    14     6    11 1   
    15     6    14 1   
    16     7     9 2   
    17     7    11 1   
    18     7    19 1   
    19     8     9 1   
    20    10    13 ar  
    21    10    20 1   
    22    12    13 1   
    23    12    21 1   
    24    12    22 1   
    25    12    23 1   
@<TRIPOS>SUBSTRUCTURE
     1 I1B         1 TEMP              0 ****  ****    0 ROOT
