@<TRIPOS>MOLECULE
I1B
   23    25     1     0     0
SMALL
bcc


@<TRIPOS>ATOM
      1 C4          13.7000    84.0190   170.9050 ca         1 I1B      -0.052300
      2 C5          14.0300    84.3260   172.3330 c3         1 I1B      -0.051800
      3 C6          14.6850    83.8140   169.9460 ca         1 I1B      -0.007200
      4 C7          14.3630    83.5380   168.6180 ca         1 I1B      -0.035100
      5 C8          13.0460    83.4540   168.2030 ca         1 I1B      -0.086000
      6 C9          16.7870    83.6150   168.9780 cc         1 I1B       0.434800
      7 C10         17.0190    84.0400   171.0670 cc         1 I1B       0.397400
      8 N1          18.0640    83.6570   169.2060 nd         1 I1B      -0.321000
      9 N2          18.2000    83.9280   170.5340 nd         1 I1B      -0.349000
     10 C3          12.3840    83.9300   170.4640 ca         1 I1B      -0.112000
     11 N3          16.0710    83.8490   170.1090 na         1 I1B      -0.258800
     12 C1          10.5960    83.5340   168.7420 c3         1 I1B      -0.049800
     13 C2          12.0380    83.6480   169.1410 ca         1 I1B      -0.065300
     14 S1          15.7820    83.3290   167.5970 ss         1 I1B      -0.096200
     15 H1          14.6250    85.2370   172.4190 hc         1 I1B       0.050700
     16 H2          13.1210    84.4680   172.9150 hc         1 I1B       0.050700
     17 H3          14.5970    83.5170   172.7960 hc         1 I1B       0.050700
     18 H4          12.8040    83.2430   167.1690 ha         1 I1B       0.148000
     19 H5          16.8130    84.2510   172.1020 h5         1 I1B       0.071100
     20 H6          11.5930    84.0900   171.1880 ha         1 I1B       0.138000
     21 H7          10.2340    82.5140   168.8890 hc         1 I1B       0.048033
     22 H8           9.9650    84.1910   169.3390 hc         1 I1B       0.048033
     23 H9          10.4500    83.7840   167.6920 hc         1 I1B       0.048033
@<TRIPOS>BOND
     1     1     2 1   
     2     1     3 ar  
     3     1    10 ar  
     4     2    15 1   
     5     2    16 1   
     6     2    17 1   
     7     3     4 ar  
     8     3    11 1   
     9     4     5 ar  
    10     4    14 1   
    11     5    13 ar  
    12     5    18 1   
    13     6     8 2   
    14     6    11 1   
    15     6    14 1   
    16     7     9 2   
    17     7    11 1   
    18     7    19 1   
    19     8     9 1   
    20    10    13 ar  
    21    10    20 1   
    22    12    13 1   
    23    12    21 1   
    24    12    22 1   
    25    12    23 1   
@<TRIPOS>SUBSTRUCTURE
     1 I1B         1 TEMP              0 ****  ****    0 ROOT
