@<TRIPOS>MOLECULE
I1C
   39    40     1     0     0
SMALL
No Charge or Current Charge


@<TRIPOS>ATOM
      1 CB1          2.5990     2.6490     1.4920 c3         1 I1C       0.180300
      2 CB2          0.3850    -2.4630     0.1860 ce         1 I1C      -0.117200
      3 CG1          3.6510     3.7770     1.4450 c3         1 I1C      -0.122100
      4 OG1          1.3770     3.2140     1.9600 oh         1 I1C      -0.661000
      5 CG2         -1.1080    -2.4130     0.1520 ca         1 I1C      -0.068800
      6 CD1         -1.8040    -1.4000    -0.5410 ca         1 I1C      -0.012000
      7 CD2         -1.8430    -3.4220     0.8060 ca         1 I1C      -0.052000
      8 CE1         -3.2080    -1.3840    -0.5620 ca         1 I1C       0.150000
      9 CE2         -3.2490    -3.4100     0.7870 ca         1 I1C      -0.221000
     10 CZ          -3.9360    -2.3920     0.1070 ca         1 I1C       0.154100
     11 OH          -5.3040    -2.3970     0.0990 oh         1 I1C      -0.523100
     12 C1           2.1610     0.5040     0.1530 cc         1 I1C       0.498900
     13 C2           2.7790    -1.6600     0.3260 c          1 I1C       0.538200
     14 C3           5.3750     0.0200    -1.0260 c          1 I1C       0.707000
     15 CA1          2.3050     2.0330     0.0860 c3         1 I1C       0.105200
     16 CA2          1.3230    -1.4500     0.1860 cd         1 I1C       0.049400
     17 I           -4.2300     0.2080    -1.6460 i          1 I1C      -0.316000
     18 N1           1.1220     2.7370    -0.5670 n8         1 I1C      -1.009200
     19 N2           0.9680    -0.1070     0.0860 nd         1 I1C      -0.681300
     20 N3           3.2340    -0.3640     0.2960 n          1 I1C      -0.301300
     21 O2           3.4300    -2.6930     0.4380 o          1 I1C      -0.514000
     22 O3           4.9330     0.7820    -1.8730 o          1 I1C      -0.715500
     23 H1           2.9590     1.8660     2.1760 h1         1 I1C       0.076700
     24 H2           0.8020    -3.4640     0.3080 ha         1 I1C       0.184000
     25 H3           3.8070     4.2010     2.4440 hc         1 I1C       0.041367
     26 H4           4.6140     3.3920     1.0880 hc         1 I1C       0.041367
     27 H5           3.3350     4.5840     0.7730 hc         1 I1C       0.041367
     28 H6           0.8960     3.3340     1.0990 ho         1 I1C       0.443000
     29 H7          -1.2650    -0.6270    -1.0790 ha         1 I1C       0.168000
     30 H8          -1.3220    -4.2160     1.3380 ha         1 I1C       0.113000
     31 H9          -3.7960    -4.1960     1.3040 ha         1 I1C       0.105000
     32 H12          3.1900     2.2300    -0.5370 h1         1 I1C       0.109700
     33 H13          5.2010    -0.7420     0.9860 h1         1 I1C       0.048700
     34 H14          4.8070     0.9710     0.8180 h1         1 I1C       0.048700
     35 H15          1.2490     2.7230    -1.5880 hn         1 I1C       0.413000
     36 H16          0.3060     2.1150    -0.4560 hn         1 I1C       0.413000
     37 O1           6.3150    -0.7360    -1.2190 o          1 I1C      -0.715500
     38 H10         -5.6120    -3.1730     0.6140 ho         1 I1C       0.462000
     39 CA3          4.6800    -0.0130     0.3530 c3         1 I1C      -0.065000
@<TRIPOS>BOND
     1     1     3 1   
     2     1     4 1   
     3     1    15 1   
     4     1    23 1   
     5     2     5 1   
     6     2    16 2   
     7     2    24 1   
     8     3    25 1   
     9     3    26 1   
    10     3    27 1   
    11     4    28 1   
    12     5     6 ar  
    13     5     7 ar  
    14     6     8 ar  
    15     6    29 1   
    16     7     9 ar  
    17     7    30 1   
    18     8    10 ar  
    19     8    17 1   
    20     9    10 ar  
    21     9    31 1   
    22    10    11 1   
    23    11    38 1   
    24    12    15 1   
    25    12    19 2   
    26    12    20 1   
    27    13    16 1   
    28    13    20 1   
    29    13    21 2   
    30    14    22 1   
    31    14    37 1   
    32    14    39 1   
    33    15    18 1   
    34    15    32 1   
    35    16    19 1   
    36    18    35 1   
    37    18    36 1   
    38    20    39 1   
    39    33    39 1   
    40    34    39 1   
@<TRIPOS>SUBSTRUCTURE
     1 I1C         1 TEMP              0 ****  ****    0 ROOT
