@<TRIPOS>MOLECULE
I1C
   39    40     1     0     0
SMALL
abcg2


@<TRIPOS>ATOM
      1 CB1          2.7530     2.6540     1.3120 c3         1 I1C       0.180300
      2 CB2          0.3470    -2.3980     0.5820 ce         1 I1C      -0.117200
      3 CG1          3.3130     4.0460     1.0700 c3         1 I1C      -0.122100
      4 OG1          1.5850     2.6800     2.1000 oh         1 I1C      -0.661000
      5 CG2         -1.0810    -2.3290     0.3480 ca         1 I1C      -0.068800
      6 CD1         -1.7490    -1.1540    -0.0250 ca         1 I1C      -0.012000
      7 CD2         -1.8390    -3.4960     0.4920 ca         1 I1C      -0.052000
      8 CE1         -3.1120    -1.1630    -0.2400 ca         1 I1C       0.150000
      9 CE2         -3.2020    -3.5020     0.2770 ca         1 I1C      -0.221000
     10 CZ          -3.8650    -2.3320    -0.0940 ca         1 I1C       0.154100
     11 OH          -5.1800    -2.2830    -0.3150 oh         1 I1C      -0.523100
     12 C1           2.2500     0.4640     0.2280 cc         1 I1C       0.498900
     13 C2           2.7130    -1.6500     0.7460 c          1 I1C       0.538200
     14 C3           5.0980    -0.1980    -1.0650 c          1 I1C       0.707000
     15 CA1          2.4880     1.9230    -0.0250 c3         1 I1C       0.105200
     16 CA2          1.2690    -1.4200     0.5030 cd         1 I1C       0.049400
     17 I           -4.0840     0.6110    -0.8030 i          1 I1C      -0.316000
     18 N1           1.3890     2.5570    -0.7240 n8         1 I1C      -1.009200
     19 N2           1.0840    -0.0830     0.1820 nd         1 I1C      -0.681300
     20 N3           3.2610    -0.3940     0.6040 n          1 I1C      -0.301300
     21 O2           3.3160    -2.6730     0.9990 o          1 I1C      -0.514000
     22 O3           4.1890    -0.2830    -1.9070 o          1 I1C      -0.715500
     23 H1           3.4840     2.0840     1.8940 h1         1 I1C       0.076700
     24 H2           0.7270    -3.3770     0.8530 ha         1 I1C       0.184000
     25 H3           3.4900     4.5570     2.0170 hc         1 I1C       0.041367
     26 H4           4.2630     3.9960     0.5360 hc         1 I1C       0.041367
     27 H5           2.6240     4.6470     0.4750 hc         1 I1C       0.041367
     28 H6           0.9580     3.2770     1.6770 ho         1 I1C       0.443000
     29 H7          -1.1820    -0.2420    -0.1440 ha         1 I1C       0.168000
     30 H8          -1.3510    -4.4180     0.7800 ha         1 I1C       0.113000
     31 H9          -3.7640    -4.4210     0.3960 ha         1 I1C       0.105000
     32 H12          3.3860     2.0190    -0.6400 h1         1 I1C       0.109700
     33 H13          5.2100    -0.9360     0.9810 h1         1 I1C       0.048700
     34 H14          4.9600     0.7850     0.8690 h1         1 I1C       0.048700
     35 H15          1.4490     2.3470    -1.7110 hn         1 I1C       0.413000
     36 H16          0.5130     2.1550    -0.4140 hn         1 I1C       0.413000
     37 O1           6.3240    -0.1160    -1.2560 o          1 I1C      -0.715500
     38 H10         -5.5820    -3.1480    -0.1700 ho         1 I1C       0.462000
     39 CA3          4.6730    -0.1690     0.4230 c3         1 I1C      -0.065000
@<TRIPOS>BOND
     1     1     3 1   
     2     1     4 1   
     3     1    15 1   
     4     1    23 1   
     5     2     5 1   
     6     2    16 2   
     7     2    24 1   
     8     3    25 1   
     9     3    26 1   
    10     3    27 1   
    11     4    28 1   
    12     5     6 ar  
    13     5     7 ar  
    14     6     8 ar  
    15     6    29 1   
    16     7     9 ar  
    17     7    30 1   
    18     8    10 ar  
    19     8    17 1   
    20     9    10 ar  
    21     9    31 1   
    22    10    11 1   
    23    11    38 1   
    24    12    15 1   
    25    12    19 2   
    26    12    20 1   
    27    13    16 1   
    28    13    20 1   
    29    13    21 2   
    30    14    22 1   
    31    14    37 1   
    32    14    39 1   
    33    15    18 1   
    34    15    32 1   
    35    16    19 1   
    36    18    35 1   
    37    18    36 1   
    38    20    39 1   
    39    33    39 1   
    40    34    39 1   
@<TRIPOS>SUBSTRUCTURE
     1 I1C         1 TEMP              0 ****  ****    0 ROOT
