@<TRIPOS>MOLECULE
I1D
   31    32     1     0     0
SMALL
bcc


@<TRIPOS>ATOM
      1 C4          -5.1980    -8.3110   -38.3230 ca         1 I1D      -0.120300
      2 C14         -1.0180    -8.2630   -42.5990 ca         1 I1D      -0.193500
      3 C5          -5.3170    -7.8590   -37.0110 ca         1 I1D      -0.067000
      4 C6          -6.5430    -7.7120   -36.3840 ca         1 I1D      -0.220000
      5 C11         -0.9750    -7.2900   -40.0030 ca         1 I1D      -0.074500
      6 C7          -7.7110    -8.0180   -37.0750 ca         1 I1D       0.154100
      7 C8          -7.6300    -8.4730   -38.3890 ca         1 I1D      -0.161000
      8 C9          -6.3890    -8.6070   -38.9840 ca         1 I1D       0.071400
      9 C10         -2.1970    -7.4950   -40.6320 ca         1 I1D      -0.129300
     10 C12          0.2170    -7.5590   -40.6580 ca         1 I1D      -0.193500
     11 C13          0.2020    -8.0480   -41.9630 ca         1 I1D       0.147100
     12 C3          -3.8530    -8.4430   -38.9710 c3         1 I1D      -0.013100
     13 C1          -3.5030    -6.0080   -39.1790 c1         1 I1D       0.219700
     14 C2          -3.5100    -7.2680   -39.9160 c3         1 I1D       0.054700
     15 O1          -8.9370    -7.9020   -36.5380 oh         1 I1D      -0.488100
     16 CL1         -6.3420    -9.1820   -40.6230 cl         1 I1D      -0.114400
     17 O2           1.3260    -8.3230   -42.6510 oh         1 I1D      -0.492100
     18 C15         -2.2000    -7.9870   -41.9330 ca         1 I1D      -0.074500
     19 H1          -1.0390    -8.6400   -43.6130 ha         1 I1D       0.142000
     20 H2          -4.4150    -7.6220   -36.4600 ha         1 I1D       0.138000
     21 H3          -6.5860    -7.3610   -35.3590 ha         1 I1D       0.139000
     22 H4          -0.9360    -6.9110   -38.9890 ha         1 I1D       0.136000
     23 H5          -8.5330    -8.7170   -38.9340 ha         1 I1D       0.164000
     24 H6           1.1590    -7.3870   -40.1500 ha         1 I1D       0.142000
     25 H7          -3.7920    -9.3540   -39.5660 hc         1 I1D       0.063700
     26 H8          -3.0790    -8.5160   -38.2050 hc         1 I1D       0.063700
     27 H9          -4.3030    -7.1750   -40.6650 hc         1 I1D       0.087700
     28 H10         -8.8810    -7.5760   -35.6320 ho         1 I1D       0.431000
     29 H11          2.1050    -8.1300   -42.1160 ho         1 I1D       0.428000
     30 H12         -3.1430    -8.1580   -42.4400 ha         1 I1D       0.136000
     31 N1          -3.4990    -5.0170   -38.5940 n1         1 I1D      -0.377800
@<TRIPOS>BOND
     1     1     3 ar  
     2     1     8 ar  
     3     1    12 1   
     4     2    11 ar  
     5     2    18 ar  
     6     2    19 1   
     7     3     4 ar  
     8     3    20 1   
     9     4     6 ar  
    10     4    21 1   
    11     5     9 ar  
    12     5    10 ar  
    13     5    22 1   
    14     6     7 ar  
    15     6    15 1   
    16     7     8 ar  
    17     7    23 1   
    18     8    16 1   
    19     9    14 1   
    20     9    18 ar  
    21    10    11 ar  
    22    10    24 1   
    23    11    17 1   
    24    12    14 1   
    25    12    25 1   
    26    12    26 1   
    27    13    14 1   
    28    13    31 3   
    29    14    27 1   
    30    15    28 1   
    31    17    29 1   
    32    18    30 1   
@<TRIPOS>SUBSTRUCTURE
     1 I1D         1 TEMP              0 ****  ****    0 ROOT
