@<TRIPOS>MOLECULE
I1D
   31    32     1     0     0
SMALL
No Charge or Current Charge


@<TRIPOS>ATOM
      1 C4          -5.2040    -8.2830   -38.2420 ca         1 I1D      -0.120300
      2 C14         -0.9950    -7.9340   -42.7460 ca         1 I1D      -0.175500
      3 C5          -5.3640    -7.6780   -36.9780 ca         1 I1D      -0.049000
      4 C6          -6.6390    -7.5710   -36.3960 ca         1 I1D      -0.202000
      5 C11         -0.9700    -7.6230   -39.9570 ca         1 I1D      -0.056500
      6 C7          -7.7630    -8.0680   -37.0700 ca         1 I1D       0.154100
      7 C8          -7.6170    -8.6730   -38.3250 ca         1 I1D      -0.143000
      8 C9          -6.3460    -8.7830   -38.9120 ca         1 I1D       0.163000
      9 C10         -2.1950    -7.5400   -40.6550 ca         1 I1D      -0.129300
     10 C12          0.2300    -7.8600   -40.6510 ca         1 I1D      -0.175500
     11 C13          0.2160    -8.0160   -42.0450 ca         1 I1D       0.147100
     12 C3          -3.8030    -8.3820   -38.8530 c3         1 I1D      -0.013100
     13 C1          -3.5150    -5.9310   -39.3260 c1         1 I1D       0.308900
     14 C2          -3.5120    -7.2840   -39.9110 c3         1 I1D       0.054700
     15 O1          -9.0000    -7.9660   -36.5090 oh         1 I1D      -0.527100
     16 Cl1         -6.2210    -9.5550   -40.4940 cl         1 I1D      -0.206000
     17 O2           1.3740    -8.2460   -42.7250 oh         1 I1D      -0.531100
     18 C15         -2.1960    -7.6970   -42.0570 ca         1 I1D      -0.056500
     19 H1          -1.0040    -8.0550   -43.8270 ha         1 I1D       0.124000
     20 H2          -4.5000    -7.2870   -36.4450 ha         1 I1D       0.120000
     21 H3          -6.7430    -7.1000   -35.4210 ha         1 I1D       0.121000
     22 H4          -0.9420    -7.5000   -38.8760 ha         1 I1D       0.118000
     23 H5          -8.4880    -9.0580   -38.8450 ha         1 I1D       0.146000
     24 H6           1.1640    -7.9200   -40.0980 ha         1 I1D       0.124000
     25 H7          -3.6680    -9.3660   -39.3190 hc         1 I1D       0.063700
     26 H8          -3.0450    -8.3360   -38.0610 hc         1 I1D       0.063700
     27 H9          -4.3360    -7.3010   -40.6340 hc         1 I1D       0.087700
     28 H10         -8.9100    -7.5200   -35.6400 ho         1 I1D       0.470000
     29 H11          2.1130    -8.2710   -42.0790 ho         1 I1D       0.467000
     30 H12         -3.1280    -7.6380   -42.6170 ha         1 I1D       0.118000
     31 N1          -3.5130    -4.8720   -38.8390 n1         1 I1D      -0.467000
@<TRIPOS>BOND
     1     1     3 ar  
     2     1     8 ar  
     3     1    12 1   
     4     2    11 ar  
     5     2    18 ar  
     6     2    19 1   
     7     3     4 ar  
     8     3    20 1   
     9     4     6 ar  
    10     4    21 1   
    11     5     9 ar  
    12     5    10 ar  
    13     5    22 1   
    14     6     7 ar  
    15     6    15 1   
    16     7     8 ar  
    17     7    23 1   
    18     8    16 1   
    19     9    14 1   
    20     9    18 ar  
    21    10    11 ar  
    22    10    24 1   
    23    11    17 1   
    24    12    14 1   
    25    12    25 1   
    26    12    26 1   
    27    13    14 1   
    28    13    31 3   
    29    14    27 1   
    30    15    28 1   
    31    17    29 1   
    32    18    30 1   
@<TRIPOS>SUBSTRUCTURE
     1 I1D         1 TEMP              0 ****  ****    0 ROOT
