@<TRIPOS>MOLECULE
I1E
   20    20     1     0     0
SMALL
abcg2


@<TRIPOS>ATOM
      1 C1          -0.7860     1.1780     0.0400 ca         1 I1E      -0.065500
      2 C2          -2.1590     1.3710     0.0430 ca         1 I1E      -0.124500
      3 C3          -3.0140     0.2770     0.0200 ca         1 I1E      -0.084000
      4 C4          -2.4910    -1.0110    -0.0050 ca         1 I1E      -0.124500
      5 C5          -1.1200    -1.2030    -0.0070 ca         1 I1E      -0.065500
      6 C6          -0.2510    -0.1100     0.0150 ca         1 I1E      -0.176600
      7 C7           1.2210    -0.3550     0.0120 c          1 I1E       0.580700
      8 O7           1.6530    -1.4890     0.0300 o          1 I1E      -0.524100
      9 C8           2.1470     0.8360    -0.0160 c3         1 I1E      -0.174400
     10 C9           3.6200     0.4730    -0.0270 c3         1 I1E      -0.079100
     11 H1          -0.1380     2.0430     0.0580 ha         1 I1E       0.123000
     12 H2          -2.5610     2.3760     0.0640 ha         1 I1E       0.117000
     13 H3          -4.0860     0.4260     0.0220 ha         1 I1E       0.114000
     14 H4          -3.1550    -1.8640    -0.0250 ha         1 I1E       0.117000
     15 H5          -0.7190    -2.2080    -0.0260 ha         1 I1E       0.123000
     16 H8           1.8970     1.4480    -0.8880 hc         1 I1E       0.060200
     17 H7           1.9200     1.4710     0.8460 hc         1 I1E       0.060200
     18 H9           4.2230     1.3800    -0.0480 hc         1 I1E       0.040700
     19 H9A          3.9060    -0.0920     0.8600 hc         1 I1E       0.040700
     20 H10          3.8850    -0.1200    -0.9020 hc         1 I1E       0.040700
@<TRIPOS>BOND
     1     1     2 ar  
     2     1     6 ar  
     3     1    11 1   
     4     2     3 ar  
     5     2    12 1   
     6     3     4 ar  
     7     3    13 1   
     8     4     5 ar  
     9     4    14 1   
    10     5     6 ar  
    11     5    15 1   
    12     6     7 1   
    13     7     8 2   
    14     7     9 1   
    15     9    10 1   
    16     9    16 1   
    17     9    17 1   
    18    10    18 1   
    19    10    19 1   
    20    10    20 1   
@<TRIPOS>SUBSTRUCTURE
     1 I1E         1 TEMP              0 ****  ****    0 ROOT
