@<TRIPOS>MOLECULE
I1E
   20    20     1     0     0
SMALL
No Charge or Current Charge


@<TRIPOS>ATOM
      1 C1          -0.8080     1.1830     0.0190 ca         1 I1E      -0.065500
      2 C2          -2.2010     1.3790     0.0310 ca         1 I1E      -0.124500
      3 C3          -3.0710     0.2790     0.0270 ca         1 I1E      -0.084000
      4 C4          -2.5470    -1.0230     0.0120 ca         1 I1E      -0.124500
      5 C5          -1.1560    -1.2250     0.0000 ca         1 I1E      -0.065500
      6 C6          -0.2650    -0.1250     0.0040 ca         1 I1E      -0.176600
      7 C7           1.2340    -0.3730    -0.0090 c          1 I1E       0.580700
      8 O7           1.6730    -1.5190    -0.0210 o          1 I1E      -0.524100
      9 C8           2.2010     0.8290    -0.0060 c3         1 I1E      -0.174400
     10 C9           3.7100     0.4900    -0.0200 c3         1 I1E      -0.079100
     11 H1          -0.1680     2.0620     0.0230 ha         1 I1E       0.123000
     12 H2          -2.6050     2.3890     0.0420 ha         1 I1E       0.117000
     13 H3          -4.1480     0.4340     0.0360 ha         1 I1E       0.114000
     14 H4          -3.2190    -1.8780     0.0090 ha         1 I1E       0.117000
     15 H5          -0.7750    -2.2440    -0.0120 ha         1 I1E       0.123000
     16 H8           1.9310     1.4790    -0.8460 hc         1 I1E       0.060200
     17 H7           1.9440     1.4650     0.8490 hc         1 I1E       0.060200
     18 H9           4.3080     1.4090    -0.0170 hc         1 I1E       0.040700
     19 H9A          3.9850    -0.0990     0.8630 hc         1 I1E       0.040700
     20 H10          3.9710    -0.0840    -0.9170 hc         1 I1E       0.040700
@<TRIPOS>BOND
     1     1     2 ar  
     2     1     6 ar  
     3     1    11 1   
     4     2     3 ar  
     5     2    12 1   
     6     3     4 ar  
     7     3    13 1   
     8     4     5 ar  
     9     4    14 1   
    10     5     6 ar  
    11     5    15 1   
    12     6     7 1   
    13     7     8 2   
    14     7     9 1   
    15     9    10 1   
    16     9    16 1   
    17     9    17 1   
    18    10    18 1   
    19    10    19 1   
    20    10    20 1   
@<TRIPOS>SUBSTRUCTURE
     1 I1E         1 TEMP              0 ****  ****    0 ROOT
