@<TRIPOS>MOLECULE
I1F
   62    65     1     0     0
SMALL
abcg2


@<TRIPOS>ATOM
      1 C13         52.1830   108.6480    74.9700 ca         1 I1F      -0.049300
      2 C16         52.7580   111.3230    74.5430 ca         1 I1F      -0.159200
      3 C22         54.3260   106.6020    74.8690 c          1 I1F       0.595100
      4 C25         56.4710   107.6690    74.4880 c6         1 I1F       0.093000
      5 C26         56.5830   109.1550    74.8250 c6         1 I1F      -0.107700
      6 C27         55.9820   109.9240    73.6990 cc         1 I1F       0.225300
      7 C30         55.4930   112.7510    71.7320 c3         1 I1F      -0.096400
      8 C31         56.6620   112.9010    70.7240 c          1 I1F       0.720000
      9 C34         54.8080   110.3630    71.9000 cd         1 I1F      -0.148000
     10 N24         55.1200   107.3280    74.0610 n          1 I1F      -0.377800
     11 O23         54.6900   106.2000    75.9660 o          1 I1F      -0.643100
     12 C04         52.3680    99.9170    75.5170 ca         1 I1F      -0.131900
     13 C05         53.6170   100.2450    74.9920 ca         1 I1F      -0.090500
     14 C06         53.8800   101.5310    74.5500 ca         1 I1F      -0.081500
     15 C07         52.9110   102.5240    74.6490 ca         1 I1F      -0.125600
     16 C08         53.2520   103.8980    74.1770 c          1 I1F       0.609700
     17 C11         52.8870   106.2800    74.4330 c3         1 I1F       0.040700
     18 C12         51.9030   107.1900    75.1860 c3         1 I1F      -0.042100
     19 C14         53.0010   109.3480    75.8530 ca         1 I1F      -0.114500
     20 C15         53.2970   110.6830    75.6470 ca         1 I1F      -0.035000
     21 C20         51.9350   110.6550    73.6480 ca         1 I1F      -0.035000
     22 C21         51.6520   109.3200    73.8720 ca         1 I1F      -0.114500
     23 C35         55.1430   109.3310    72.7460 cc         1 I1F      -0.282300
     24 C36         54.7590   107.8880    72.7650 c6         1 I1F       0.206300
     25 C37         51.6570   102.1950    75.1620 ca         1 I1F      -0.081500
     26 C38         51.3880   100.9040    75.5820 ca         1 I1F      -0.090500
     27 N01         53.1240    97.8070    76.4070 nv         1 I1F      -1.076200
     28 N03         50.8400    98.1400    75.9200 n2         1 I1F      -0.829100
     29 N10         52.5840   104.9090    74.7630 ns         1 I1F      -0.486900
     30 N17         53.0660   112.7230    74.3160 no         1 I1F       0.698200
     31 N28         56.1460   111.2130    73.4610 nd         1 I1F      -0.498800
     32 N29         55.4180   111.4640    72.3740 na         1 I1F       0.205800
     33 O09         54.0930   104.0910    73.3110 o          1 I1F      -0.586100
     34 O18         52.5440   113.2750    73.3750 o          1 I1F      -0.396000
     35 O19         53.8280   113.2700    75.0790 o          1 I1F      -0.396000
     36 O32         57.3420   111.8940    70.4770 o          1 I1F      -0.707500
     37 O33         56.7730   114.0480    70.2550 o          1 I1F      -0.707500
     38 H252        56.7500   107.0530    75.3370 h1         1 I1F       0.059700
     39 H251        57.1540   107.4270    73.6680 h1         1 I1F       0.059700
     40 H261        57.6330   109.4170    74.9760 hc         1 I1F       0.050700
     41 H262        56.0660   109.3640    75.7660 hc         1 I1F       0.050700
     42 H302        55.5730   113.5120    72.5080 h1         1 I1F       0.056200
     43 H301        54.5500   112.9270    71.2100 h1         1 I1F       0.056200
     44 H341        54.1850   110.3960    71.0200 h4         1 I1F       0.147000
     45 H051        54.3910    99.4940    74.9010 ha         1 I1F       0.127000
     46 H061        54.8520   101.7640    74.1360 ha         1 I1F       0.128500
     47 H111        52.7340   106.4050    73.3620 h1         1 I1F       0.085700
     48 H122        50.8940   106.9480    74.8490 hc         1 I1F       0.057200
     49 H121        51.9570   106.9600    76.2530 hc         1 I1F       0.057200
     50 H141        53.4170   108.8430    76.7160 ha         1 I1F       0.124000
     51 H151        53.9380   111.2060    76.3420 ha         1 I1F       0.150500
     52 H201        51.5190   111.1580    72.7870 ha         1 I1F       0.150500
     53 H211        51.0080   108.7920    73.1790 ha         1 I1F       0.124000
     54 H362        53.6960   107.7840    72.5750 h1         1 I1F       0.043200
     55 H361        55.2780   107.3290    71.9780 h1         1 I1F       0.043200
     56 H371        50.8680   102.9350    75.2220 ha         1 I1F       0.128500
     57 H381        50.4100   100.6580    75.9710 ha         1 I1F       0.127000
     58 H1          53.9180    98.2940    76.7900 hn         1 I1F       0.461500
     59 H011        52.9340    96.9270    76.8610 hn         1 I1F       0.461500
     60 H031        50.7370    97.2000    76.2930 hn         1 I1F       0.368400
     61 H101        52.0680   104.7310    75.6110 hn         1 I1F       0.318500
     62 C02         52.0510    98.5390    75.9880 ce         1 I1F       0.660800
@<TRIPOS>BOND
     1     1    18 1   
     2     1    19 ar  
     3     1    22 ar  
     4     2    20 ar  
     5     2    21 ar  
     6     2    30 1   
     7     3    10 1   
     8     3    11 2   
     9     3    17 1   
    10     4     5 1   
    11     4    10 1   
    12     4    38 1   
    13     4    39 1   
    14     5     6 1   
    15     5    40 1   
    16     5    41 1   
    17     6    23 1   
    18     6    31 2   
    19     7     8 1   
    20     7    32 1   
    21     7    42 1   
    22     7    43 1   
    23     8    36 1   
    24     8    37 1   
    25     9    23 2   
    26     9    32 1   
    27     9    44 1   
    28    10    24 1   
    29    12    13 ar  
    30    12    26 ar  
    31    12    62 1   
    32    13    14 ar  
    33    13    45 1   
    34    14    15 ar  
    35    14    46 1   
    36    15    16 1   
    37    15    25 ar  
    38    16    29 1   
    39    16    33 2   
    40    17    18 1   
    41    17    29 1   
    42    17    47 1   
    43    18    48 1   
    44    18    49 1   
    45    19    20 ar  
    46    19    50 1   
    47    20    51 1   
    48    21    22 ar  
    49    21    52 1   
    50    22    53 1   
    51    23    24 1   
    52    24    54 1   
    53    24    55 1   
    54    25    26 ar  
    55    25    56 1   
    56    26    57 1   
    57    27    58 1   
    58    27    59 1   
    59    27    62 1   
    60    28    60 1   
    61    28    62 2   
    62    29    61 1   
    63    30    34 1   
    64    30    35 1   
    65    31    32 1   
@<TRIPOS>SUBSTRUCTURE
     1 I1F         1 TEMP              0 ****  ****    0 ROOT
