@<TRIPOS>MOLECULE
I1F
   62    65     1     0     0
SMALL
No Charge or Current Charge


@<TRIPOS>ATOM
      1 C13         52.2100   108.3660    74.4810 ca         1 I1F      -0.049300
      2 C16         52.2620   111.0120    73.4680 ca         1 I1F      -0.159200
      3 C22         54.7780   106.6580    75.3220 c          1 I1F       0.595100
      4 C25         56.4030   108.5540    75.7050 c6         1 I1F       0.093000
      5 C26         56.2360   110.0910    75.7020 c6         1 I1F      -0.107700
      6 C27         56.0310   110.6190    74.3070 cc         1 I1F       0.225300
      7 C30         55.8330   112.9990    71.7320 c3         1 I1F      -0.096400
      8 C31         56.9180   112.9430    70.6590 c          1 I1F       0.720000
      9 C34         55.4830   110.5060    72.1610 cd         1 I1F      -0.148000
     10 N24         55.3430   107.8860    74.9030 n          1 I1F      -0.377800
     11 O23         55.2540   106.0570    76.2820 o          1 I1F      -0.643100
     12 C04         52.3020    99.6780    75.6840 ca         1 I1F      -0.131900
     13 C05         51.6350   100.0830    74.5040 ca         1 I1F      -0.090500
     14 C06         51.7250   101.4070    74.0430 ca         1 I1F      -0.081500
     15 C07         52.4710   102.3760    74.7500 ca         1 I1F      -0.125600
     16 C08         52.5440   103.7950    74.2190 c          1 I1F       0.609700
     17 C11         53.4850   106.1220    74.6180 c3         1 I1F       0.040700
     18 C12         52.2210   106.9390    75.0140 c3         1 I1F      -0.042100
     19 C14         52.5610   109.4410    75.3180 ca         1 I1F      -0.114500
     20 C15         52.5900   110.7540    74.8180 ca         1 I1F      -0.035000
     21 C20         51.8910   109.9310    72.6340 ca         1 I1F      -0.035000
     22 C21         51.8630   108.6200    73.1420 ca         1 I1F      -0.114500
     23 C35         55.6150   109.7540    73.2870 cc         1 I1F      -0.282300
     24 C36         55.3680   108.2780    73.4690 c6         1 I1F       0.206300
     25 C37         53.1200   101.9790    75.9430 ca         1 I1F      -0.081500
     26 C38         53.0280   100.6530    76.4030 ca         1 I1F      -0.090500
     27 N01         51.8830    97.2890    75.3350 nv         1 I1F      -1.076200
     28 N03         52.4570    97.9510    77.4050 n2         1 I1F      -0.829100
     29 N10         53.2950   104.6910    74.9510 ns         1 I1F      -0.486900
     30 N17         52.3160   112.4060    72.9250 no         1 I1F       0.698200
     31 N28         56.1710   111.8660    73.9130 nd         1 I1F      -0.498800
     32 N29         55.8340   111.7970    72.5660 na         1 I1F       0.205800
     33 O09         51.9740   104.1380    73.1920 o          1 I1F      -0.586100
     34 O18         52.0930   112.5730    71.7190 o          1 I1F      -0.396000
     35 O19         52.5900   113.3280    73.7040 o          1 I1F      -0.396000
     36 O32         56.6350   112.4420    69.5800 o          1 I1F      -0.707500
     37 O33         58.0110   113.4270    70.9150 o          1 I1F      -0.707500
     38 H252        56.3870   108.2000    76.7450 h1         1 I1F       0.059700
     39 H251        57.3840   108.2920    75.2830 h1         1 I1F       0.059700
     40 H261        57.1140   110.5540    76.1700 hc         1 I1F       0.050700
     41 H262        55.3750   110.3600    76.3270 hc         1 I1F       0.050700
     42 H302        55.9970   113.8850    72.3570 h1         1 I1F       0.056200
     43 H301        54.8580   113.0940    71.2430 h1         1 I1F       0.056200
     44 H341        55.1810   110.2550    71.1510 h4         1 I1F       0.147000
     45 H051        51.0300    99.3770    73.9390 ha         1 I1F       0.127000
     46 H061        51.2020   101.6810    73.1290 ha         1 I1F       0.128500
     47 H111        53.6320   106.1870    73.5340 h1         1 I1F       0.085700
     48 H122        51.3300   106.4220    74.6400 hc         1 I1F       0.057200
     49 H121        52.1260   106.9380    76.1070 hc         1 I1F       0.057200
     50 H141        52.8320   109.2600    76.3550 ha         1 I1F       0.124000
     51 H151        52.8840   111.5640    75.4850 ha         1 I1F       0.150500
     52 H201        51.6310   110.0950    71.5900 ha         1 I1F       0.150500
     53 H211        51.5850   107.7980    72.4870 ha         1 I1F       0.124000
     54 H362        54.4270   108.0140    72.9760 h1         1 I1F       0.043200
     55 H361        56.1600   107.7040    72.9670 h1         1 I1F       0.043200
     56 H371        53.7000   102.6840    76.5330 ha         1 I1F       0.128500
     57 H381        53.5370   100.3830    77.3260 ha         1 I1F       0.127000
     58 H1          51.9810    97.5410    74.3580 hn         1 I1F       0.461500
     59 H011        52.2160    96.3620    75.5730 hn         1 I1F       0.461500
     60 H031        52.1120    96.9980    77.5610 hn         1 I1F       0.368400
     61 H101        53.7630   104.3370    75.7760 hn         1 I1F       0.318500
     62 C02         52.1880    98.2740    76.2070 ce         1 I1F       0.660800
@<TRIPOS>BOND
     1     1    18 1   
     2     1    19 ar  
     3     1    22 ar  
     4     2    20 ar  
     5     2    21 ar  
     6     2    30 1   
     7     3    10 1   
     8     3    11 2   
     9     3    17 1   
    10     4     5 1   
    11     4    10 1   
    12     4    38 1   
    13     4    39 1   
    14     5     6 1   
    15     5    40 1   
    16     5    41 1   
    17     6    23 1   
    18     6    31 2   
    19     7     8 1   
    20     7    32 1   
    21     7    42 1   
    22     7    43 1   
    23     8    36 1   
    24     8    37 1   
    25     9    23 2   
    26     9    32 1   
    27     9    44 1   
    28    10    24 1   
    29    12    13 ar  
    30    12    26 ar  
    31    12    62 1   
    32    13    14 ar  
    33    13    45 1   
    34    14    15 ar  
    35    14    46 1   
    36    15    16 1   
    37    15    25 ar  
    38    16    29 1   
    39    16    33 2   
    40    17    18 1   
    41    17    29 1   
    42    17    47 1   
    43    18    48 1   
    44    18    49 1   
    45    19    20 ar  
    46    19    50 1   
    47    20    51 1   
    48    21    22 ar  
    49    21    52 1   
    50    22    53 1   
    51    23    24 1   
    52    24    54 1   
    53    24    55 1   
    54    25    26 ar  
    55    25    56 1   
    56    26    57 1   
    57    27    58 1   
    58    27    59 1   
    59    27    62 1   
    60    28    60 1   
    61    28    62 2   
    62    29    61 1   
    63    30    34 1   
    64    30    35 1   
    65    31    32 1   
@<TRIPOS>SUBSTRUCTURE
     1 I1F         1 TEMP              0 ****  ****    0 ROOT
