@<TRIPOS>MOLECULE
I1G
   82    86     1     0     0
SMALL
No Charge or Current Charge


@<TRIPOS>ATOM
      1 NAP         48.5170   -32.9930    -4.4920 nb         1 I1G      -0.727000
      2 CAM         49.6120   -33.4970    -1.9440 ca         1 I1G      -0.088300
      3 CAR         48.4230   -32.7660    -2.0970 ca         1 I1G      -0.204000
      4 CAQ         47.8970   -32.5230    -3.3910 cp         1 I1G       0.489500
      5 CAS         46.6230   -31.7550    -3.6210 cp         1 I1G      -0.160500
      6 CAZ         45.8750   -31.9100    -4.8240 ca         1 I1G      -0.071500
      7 CAW         44.2080   -30.3040    -4.0740 ca         1 I1G      -0.061000
      8 CBG         48.4000   -35.0070    -6.7810 ca         1 I1G       0.173400
      9 CBC         50.2990   -34.0570    -7.9010 ca         1 I1G       0.173400
     10 CBJ         46.0650   -36.2900   -11.6850 c6         1 I1G       0.079600
     11 CBQ         48.0750   -35.3570   -12.8580 c6         1 I1G       0.079600
     12 CAL         50.2060   -33.7530    -0.5730 c3         1 I1G       0.148900
     13 CAU         44.9260   -30.1260    -2.8830 ca         1 I1G       0.119500
     14 CAT         46.1170   -30.8390    -2.6580 ca         1 I1G      -0.071500
     15 CBB         49.6700   -34.4020    -6.6930 ca         1 I1G      -0.075900
     16 CBE         48.4800   -34.8450    -9.0800 ca         1 I1G       0.392900
     17 CAO         49.6540   -33.7070    -4.3580 ca         1 I1G       0.603300
     18 CBI         46.3910   -35.4390   -10.4290 c6         1 I1G       0.190300
     19 CBR         48.4170   -34.4980   -11.6110 c6         1 I1G       0.190300
     20 CAN         50.2360   -33.9680    -3.1090 ca         1 I1G      -0.154000
     21 CAH         52.2260   -32.2220    -0.7740 c6         1 I1G       0.099100
     22 CAG         52.8680   -30.9280    -0.2370 c6         1 I1G      -0.102900
     23 CAF         53.1540   -31.0260     1.2860 c6         1 I1G      -0.092700
     24 CAK         51.8500   -31.3890     2.0520 c6         1 I1G      -0.102900
     25 CAJ         51.2090   -32.6770     1.4960 c6         1 I1G       0.099100
     26 CAE         53.8170   -29.7190     1.8110 c3         1 I1G       0.107000
     27 CAB         53.5020   -29.2930     4.2780 c          1 I1G       0.602100
     28 CAA         54.1280   -29.5280     5.6450 c3         1 I1G      -0.181100
     29 CBL         46.2240   -36.4230   -14.2440 c3         1 I1G       0.124600
     30 CBM         44.7160   -36.4620   -14.5220 c3         1 I1G      -0.264400
     31 CBN         44.4960   -37.1960   -15.8430 c          1 I1G       0.734000
     32 CAX         44.6860   -31.1960    -5.0440 ca         1 I1G       0.119500
     33 NBF         47.8060   -35.2250    -7.9710 nb         1 I1G      -0.225000
     34 NBD         49.7060   -34.2740    -9.0910 nb         1 I1G      -0.225000
     35 NBH         47.8520   -35.0770   -10.3390 nh         1 I1G      -0.768300
     36 NBK         46.5650   -35.6310   -12.9870 nx         1 I1G      -0.670000
     37 NAI         50.9370   -32.5430    -0.0070 nx         1 I1G      -0.665000
     38 NAD         54.2210   -29.8000     3.2200 ns         1 I1G      -0.518900
     39 OBA         50.3020   -34.1750    -5.4830 os         1 I1G      -0.326400
     40 OAC         52.4440   -28.6990     4.1350 o          1 I1G      -0.600100
     41 OBO         44.5280   -36.5380   -16.8720 o          1 I1G      -0.680500
     42 OBP         44.3700   -38.4090   -15.8080 o          1 I1G      -0.680500
     43 Cl1         44.3380   -28.9990    -1.6670 cl         1 I1G      -0.166500
     44 Cl2         43.7920   -31.4230    -6.5420 cl         1 I1G      -0.166500
     45 HAS         47.9010   -32.4040    -1.2180 ha         1 I1G       0.128000
     46 HAZ         46.2130   -32.5980    -5.5960 ha         1 I1G       0.133500
     47 HAW         43.2890   -29.7510    -4.2460 ha         1 I1G       0.161000
     48 HBG         47.8510   -35.3260    -5.8960 h4         1 I1G       0.041100
     49 HBC         51.2860   -33.5970    -7.9170 h4         1 I1G       0.041100
     50 HBL         44.9860   -36.4530   -11.7690 hx         1 I1G       0.110200
     51 HBK         46.5450   -37.2700   -11.6080 hx         1 I1G       0.110200
     52 HBQ         48.5800   -36.3260   -12.7920 hx         1 I1G       0.110200
     53 HBR         48.4180   -34.8640   -13.7740 hx         1 I1G       0.110200
     54 HAP         49.4050   -34.0240     0.1200 hx         1 I1G       0.105200
     55 HAQ         50.9040   -34.5930    -0.6090 hx         1 I1G       0.105200
     56 HAT         46.6520   -30.6580    -1.7300 ha         1 I1G       0.133500
     57 HBJ         45.7800   -34.5250   -10.4500 h1         1 I1G       0.085700
     58 HBI         46.0620   -36.0220    -9.5560 h1         1 I1G       0.085700
     59 HBT         49.5130   -34.4190   -11.5710 h1         1 I1G       0.085700
     60 HBS         48.0300   -33.4800   -11.7640 h1         1 I1G       0.085700
     61 HAR         51.1610   -34.5350    -3.0600 ha         1 I1G       0.152000
     62 HAK         51.9780   -32.1300    -1.8370 hx         1 I1G       0.096950
     63 HAJ         52.9030   -33.0750    -0.6560 hx         1 I1G       0.096950
     64 HAH         53.8000   -30.7340    -0.7860 hc         1 I1G       0.088450
     65 HAI         52.2040   -30.0780    -0.4440 hc         1 I1G       0.088450
     66 HAG         53.8870   -31.8300     1.4470 hc         1 I1G       0.062700
     67 HAN         52.0600   -31.5330     3.1200 hc         1 I1G       0.088450
     68 HAO         51.1300   -30.5620     1.9860 hc         1 I1G       0.088450
     69 HAL         50.2620   -32.8970     2.0000 hx         1 I1G       0.096950
     70 HAM         51.8740   -33.5360     1.6370 hx         1 I1G       0.096950
     71 HAE         54.7130   -29.5100     1.2110 h1         1 I1G       0.071200
     72 HAF         53.1240   -28.8780     1.6710 h1         1 I1G       0.071200
     73 HAB         54.2990   -30.6020     5.7770 hc         1 I1G       0.070367
     74 HAA         55.1480   -29.1270     5.6440 hc         1 I1G       0.070367
     75 HAC         53.5280   -29.1100     6.4610 hc         1 I1G       0.070367
     76 HBN         46.6090   -37.4410   -14.1370 hx         1 I1G       0.097200
     77 HBM         46.7280   -35.9570   -15.0950 hx         1 I1G       0.097200
     78 HBP         44.3920   -35.4180   -14.6000 hc         1 I1G       0.041200
     79 HBO         44.2570   -37.0170   -13.6970 hc         1 I1G       0.041200
     80 HBV         46.0870   -34.7070   -13.0770 hn         1 I1G       0.486000
     81 HBU         50.2910   -31.7320    -0.1330 hn         1 I1G       0.499000
     82 HAD         55.0880   -30.2730     3.4460 hn         1 I1G       0.319500
@<TRIPOS>BOND
     1     1     4 ar  
     2     1    17 ar  
     3     2     3 ar  
     4     2    12 1   
     5     2    20 ar  
     6     3     4 ar  
     7     3    45 1   
     8     4     5 1   
     9     5     6 ar  
    10     5    14 ar  
    11     6    32 ar  
    12     6    46 1   
    13     7    13 ar  
    14     7    32 ar  
    15     7    47 1   
    16     8    15 ar  
    17     8    33 ar  
    18     8    48 1   
    19     9    15 ar  
    20     9    34 ar  
    21     9    49 1   
    22    10    18 1   
    23    10    36 1   
    24    10    50 1   
    25    10    51 1   
    26    11    19 1   
    27    11    36 1   
    28    11    52 1   
    29    11    53 1   
    30    12    37 1   
    31    12    54 1   
    32    12    55 1   
    33    13    14 ar  
    34    13    43 1   
    35    14    56 1   
    36    15    39 1   
    37    16    33 ar  
    38    16    34 ar  
    39    16    35 1   
    40    17    20 ar  
    41    17    39 1   
    42    18    35 1   
    43    18    57 1   
    44    18    58 1   
    45    19    35 1   
    46    19    59 1   
    47    19    60 1   
    48    20    61 1   
    49    21    22 1   
    50    21    37 1   
    51    21    62 1   
    52    21    63 1   
    53    22    23 1   
    54    22    64 1   
    55    22    65 1   
    56    23    24 1   
    57    23    26 1   
    58    23    66 1   
    59    24    25 1   
    60    24    67 1   
    61    24    68 1   
    62    25    37 1   
    63    25    69 1   
    64    25    70 1   
    65    26    38 1   
    66    26    71 1   
    67    26    72 1   
    68    27    28 1   
    69    27    38 1   
    70    27    40 2   
    71    28    73 1   
    72    28    74 1   
    73    28    75 1   
    74    29    30 1   
    75    29    36 1   
    76    29    76 1   
    77    29    77 1   
    78    30    31 1   
    79    30    78 1   
    80    30    79 1   
    81    31    41 1   
    82    31    42 1   
    83    32    44 1   
    84    36    80 1   
    85    37    81 1   
    86    38    82 1   
@<TRIPOS>SUBSTRUCTURE
     1 I1G         1 TEMP              0 ****  ****    0 ROOT
