@<TRIPOS>MOLECULE
I1G
   82    86     1     0     0
SMALL
abcg2


@<TRIPOS>ATOM
      1 NAP         48.7690   -33.7180    -4.5170 nb         1 I1G      -0.727000
      2 CAM         49.7930   -33.8660    -1.9630 ca         1 I1G      -0.088300
      3 CAR         48.7260   -33.0140    -2.2510 ca         1 I1G      -0.204000
      4 CAQ         48.2660   -32.9420    -3.5550 cp         1 I1G       0.489500
      5 CAS         47.1970   -32.0100    -3.9740 cp         1 I1G      -0.160500
      6 CAZ         46.4860   -32.2650    -5.1450 ca         1 I1G      -0.071500
      7 CAW         45.2160   -30.2280    -4.8350 ca         1 I1G      -0.061000
      8 CBG         48.5340   -36.1630    -6.6990 ca         1 I1G       0.173400
      9 CBC         49.9590   -34.4360    -7.4270 ca         1 I1G       0.173400
     10 CBJ         46.2390   -36.3830   -11.5620 c6         1 I1G       0.079600
     11 CBQ         47.6780   -34.5650   -12.3020 c6         1 I1G       0.079600
     12 CAL         50.3380   -33.9660    -0.5680 c3         1 I1G       0.148900
     13 CAU         45.9390   -29.9910    -3.6780 ca         1 I1G       0.119500
     14 CAT         46.9200   -30.8610    -3.2370 ca         1 I1G      -0.071500
     15 CBB         49.5850   -35.3090    -6.4210 ca         1 I1G      -0.075900
     16 CBE         48.3190   -35.2530    -8.7630 ca         1 I1G       0.392900
     17 CAO         49.7400   -34.5410    -4.2320 ca         1 I1G       0.603300
     18 CBI         46.4110   -35.9240   -10.1300 c6         1 I1G       0.190300
     19 CBR         47.8310   -34.1080   -10.8670 c6         1 I1G       0.190300
     20 CAN         50.3270   -34.6450    -2.9690 ca         1 I1G      -0.154000
     21 CAH         51.9370   -32.0860    -0.8980 c6         1 I1G       0.099100
     22 CAG         52.3930   -30.7450    -0.3600 c6         1 I1G      -0.102900
     23 CAF         52.8430   -30.8340     1.0950 c6         1 I1G      -0.092700
     24 CAK         51.7230   -31.4460     1.9270 c6         1 I1G      -0.102900
     25 CAJ         51.2840   -32.7860     1.3750 c6         1 I1G       0.099100
     26 CAE         53.2590   -29.4550     1.6020 c3         1 I1G       0.107000
     27 CAB         53.1470   -29.0670     4.0390 c          1 I1G       0.602100
     28 CAA         53.9170   -29.1910     5.3310 c3         1 I1G      -0.181100
     29 CBL         46.2010   -35.6560   -13.9510 c3         1 I1G       0.124600
     30 CBM         44.8180   -36.1860   -14.2540 c3         1 I1G      -0.264400
     31 CBN         44.5780   -36.4110   -15.7700 c          1 I1G       0.734000
     32 CAX         45.5100   -31.3760    -5.5550 ca         1 I1G       0.119500
     33 NBF         47.9050   -36.1420    -7.8580 nb         1 I1G      -0.225000
     34 NBD         49.3370   -34.4070    -8.5910 nb         1 I1G      -0.225000
     35 NBH         47.6630   -35.2210    -9.9590 nh         1 I1G      -0.768300
     36 NBK         46.3690   -35.2460   -12.5160 nx         1 I1G      -0.670000
     37 NAI         50.8430   -32.6570    -0.0520 nx         1 I1G      -0.665000
     38 NAD         53.8030   -29.4780     2.9380 ns         1 I1G      -0.518900
     39 OBA         50.2270   -35.3370    -5.2080 os         1 I1G      -0.326400
     40 OAC         52.0070   -28.6220     4.0150 o          1 I1G      -0.600100
     41 OBO         45.4500   -35.9880   -16.5510 o          1 I1G      -0.680500
     42 OBP         43.5170   -36.9940   -16.0540 o          1 I1G      -0.680500
     43 CL1         45.6180   -28.5550    -2.7700 cl         1 I1G      -0.166500
     44 CL2         44.6340   -31.6960    -7.0100 cl         1 I1G      -0.166500
     45 HAS         48.2560   -32.4350    -1.4660 ha         1 I1G       0.128000
     46 HAZ         46.6990   -33.1510    -5.7270 ha         1 I1G       0.133500
     47 HAW         44.4530   -29.5390    -5.1690 ha         1 I1G       0.161000
     48 HBG         48.1920   -36.8820    -5.9600 h4         1 I1G       0.041100
     49 HBC         50.7810   -33.7410    -7.2850 h4         1 I1G       0.041100
     50 HBL         45.2540   -36.8260   -11.6850 hx         1 I1G       0.110200
     51 HBK         46.9980   -37.1150   -11.8390 hx         1 I1G       0.110200
     52 HBQ         48.4550   -35.2800   -12.5730 hx         1 I1G       0.110200
     53 HBR         47.7250   -33.7130   -12.9770 hx         1 I1G       0.110200
     54 HAP         49.5580   -34.2940     0.1210 hx         1 I1G       0.105200
     55 HAQ         51.1670   -34.6700    -0.5130 hx         1 I1G       0.105200
     56 HAT         47.4780   -30.6210    -2.3430 ha         1 I1G       0.133500
     57 HBJ         45.5650   -35.2880    -9.8380 h1         1 I1G       0.085700
     58 HBI         46.3880   -36.8050    -9.4960 h1         1 I1G       0.085700
     59 HBT         48.8220   -33.6790   -10.7580 h1         1 I1G       0.085700
     60 HBS         47.1020   -33.3170   -10.6490 h1         1 I1G       0.085700
     61 HAR         51.1540   -35.3200    -2.7910 ha         1 I1G       0.152000
     62 HAK         51.5590   -31.9900    -1.9140 hx         1 I1G       0.096950
     63 HAJ         52.7440   -32.8200    -0.8970 hx         1 I1G       0.096950
     64 HAH         53.2060   -30.3970    -0.9990 hc         1 I1G       0.088450
     65 HAI         51.5810   -30.0170    -0.4600 hc         1 I1G       0.088450
     66 HAG         53.7140   -31.4990     1.1440 hc         1 I1G       0.062700
     67 HAN         52.0420   -31.6130     2.9570 hc         1 I1G       0.088450
     68 HAO         50.8660   -30.7650     1.9660 hc         1 I1G       0.088450
     69 HAL         50.4450   -33.1960     1.9340 hx         1 I1G       0.096950
     70 HAM         52.1000   -33.5100     1.3860 hx         1 I1G       0.096950
     71 HAE         54.0110   -29.0380     0.9290 h1         1 I1G       0.071200
     72 HAF         52.4020   -28.7800     1.5830 h1         1 I1G       0.071200
     73 HAB         53.3830   -29.8610     6.0050 hc         1 I1G       0.070367
     74 HAA         54.9310   -29.5670     5.2060 hc         1 I1G       0.070367
     75 HAC         53.9670   -28.2180     5.8180 hc         1 I1G       0.070367
     76 HBN         46.9810   -36.3900   -14.1530 hx         1 I1G       0.097200
     77 HBM         46.4100   -34.7660   -14.5410 hx         1 I1G       0.097200
     78 HBP         44.0610   -35.4820   -13.8900 hc         1 I1G       0.041200
     79 HBO         44.6280   -37.1300   -13.7410 hc         1 I1G       0.041200
     80 HBV         45.6270   -34.5720   -12.3070 hn         1 I1G       0.486000
     81 HBU         50.0660   -31.9910    -0.0590 hn         1 I1G       0.499000
     82 HAD         54.7390   -29.8330     3.0430 hn         1 I1G       0.319500
@<TRIPOS>BOND
     1     1     4 ar  
     2     1    17 ar  
     3     2     3 ar  
     4     2    12 1   
     5     2    20 ar  
     6     3     4 ar  
     7     3    45 1   
     8     4     5 1   
     9     5     6 ar  
    10     5    14 ar  
    11     6    32 ar  
    12     6    46 1   
    13     7    13 ar  
    14     7    32 ar  
    15     7    47 1   
    16     8    15 ar  
    17     8    33 ar  
    18     8    48 1   
    19     9    15 ar  
    20     9    34 ar  
    21     9    49 1   
    22    10    18 1   
    23    10    36 1   
    24    10    50 1   
    25    10    51 1   
    26    11    19 1   
    27    11    36 1   
    28    11    52 1   
    29    11    53 1   
    30    12    37 1   
    31    12    54 1   
    32    12    55 1   
    33    13    14 ar  
    34    13    43 1   
    35    14    56 1   
    36    15    39 1   
    37    16    33 ar  
    38    16    34 ar  
    39    16    35 1   
    40    17    20 ar  
    41    17    39 1   
    42    18    35 1   
    43    18    57 1   
    44    18    58 1   
    45    19    35 1   
    46    19    59 1   
    47    19    60 1   
    48    20    61 1   
    49    21    22 1   
    50    21    37 1   
    51    21    62 1   
    52    21    63 1   
    53    22    23 1   
    54    22    64 1   
    55    22    65 1   
    56    23    24 1   
    57    23    26 1   
    58    23    66 1   
    59    24    25 1   
    60    24    67 1   
    61    24    68 1   
    62    25    37 1   
    63    25    69 1   
    64    25    70 1   
    65    26    38 1   
    66    26    71 1   
    67    26    72 1   
    68    27    28 1   
    69    27    38 1   
    70    27    40 2   
    71    28    73 1   
    72    28    74 1   
    73    28    75 1   
    74    29    30 1   
    75    29    36 1   
    76    29    76 1   
    77    29    77 1   
    78    30    31 1   
    79    30    78 1   
    80    30    79 1   
    81    31    41 1   
    82    31    42 1   
    83    32    44 1   
    84    36    80 1   
    85    37    81 1   
    86    38    82 1   
@<TRIPOS>SUBSTRUCTURE
     1 I1G         1 TEMP              0 ****  ****    0 ROOT
