@<TRIPOS>MOLECULE
I1H
   64    67     1     0     0
SMALL
No Charge or Current Charge


@<TRIPOS>ATOM
      1 C1          -1.6900     3.9220     1.0290 ca         1 I1H       0.136100
      2 C2          -1.9860     2.5610     0.7890 ca         1 I1H       0.107100
      3 C3          -1.0250     1.5710     1.0990 ca         1 I1H      -0.121000
      4 C4           0.2320     1.9180     1.6470 ca         1 I1H      -0.148600
      5 C5           0.5110     3.2850     1.8810 ca         1 I1H      -0.083000
      6 C6          -0.4380     4.2750     1.5760 ca         1 I1H      -0.187000
      7 O7          -2.6470     4.8750     0.7180 os         1 I1H      -0.317100
      8 O8          -3.2220     2.2380     0.2500 os         1 I1H      -0.330100
      9 C9          -3.6130     0.8840    -0.0340 c3         1 I1H       0.160600
     10 C10         -5.0360     0.9220    -0.6240 c3         1 I1H      -0.033100
     11 C13         -5.5610    -0.4750    -0.9570 ca         1 I1H      -0.073300
     12 C16         -6.4180    -1.1230    -0.0450 ca         1 I1H      -0.092000
     13 C17         -6.9130    -2.4100    -0.3220 ca         1 I1H      -0.100000
     14 C18         -6.5530    -3.0580    -1.5140 ca         1 I1H       0.127000
     15 C19         -5.7000    -2.4240    -2.4280 ca         1 I1H      -0.097000
     16 C20         -5.2030    -1.1390    -2.1560 ca         1 I1H       0.130000
     17 Cl21        -4.1280    -0.3890    -3.3370 cl         1 I1H      -0.194000
     18 Cl22        -7.1720    -4.6670    -1.8590 cl         1 I1H      -0.191000
     19 C23          1.2360     0.8240     1.9640 c          1 I1H       0.616700
     20 N24          2.4410     1.2290     2.4990 ns         1 I1H      -0.505900
     21 C25          3.5600     0.3390     2.8300 c3         1 I1H       0.109000
     22 C26          4.6660     0.3100     1.7360 c6         1 I1H      -0.080700
     23 C29          5.8780    -0.5460     2.1900 c6         1 I1H      -0.083400
     24 C30          6.9840    -0.5860     1.1090 c6         1 I1H       0.214800
     25 N31          6.4420    -1.0680    -0.1920 nh         1 I1H      -0.804400
     26 C32          5.2830    -0.2740    -0.6880 c6         1 I1H       0.214800
     27 C33          4.1520    -0.2170     0.3670 c6         1 I1H      -0.083400
     28 C43          7.2810    -1.7650    -1.0880 ca         1 I1H       0.366000
     29 C44          7.4630    -1.3410    -2.4100 ca         1 I1H      -0.244000
     30 C45          8.3080    -2.0740    -3.2500 ca         1 I1H       0.364900
     31 N46          8.9620    -3.1840    -2.8470 nb         1 I1H      -0.694000
     32 C47          8.7820    -3.5910    -1.5720 ca         1 I1H       0.364900
     33 C48          7.9570    -2.9130    -0.6680 ca         1 I1H      -0.244000
     34 O52          0.9950    -0.3580     1.7590 o          1 I1H      -0.609100
     35 C7          -2.4330     6.2820     0.9280 c3         1 I1H       0.144900
     36 H3          -1.2420     0.5220     0.9180 ha         1 I1H       0.146000
     37 H5           1.4630     3.6030     2.3000 ha         1 I1H       0.107000
     38 H6          -0.1810     5.3120     1.7720 ha         1 I1H       0.121000
     39 H9C1        -2.9270     0.4250    -0.7570 h1         1 I1H       0.043700
     40 H9C2        -3.6160     0.2790     0.8820 h1         1 I1H       0.043700
     41 H101        -5.7000     1.4130     0.0970 hc         1 I1H       0.071200
     42 H102        -5.0410     1.5600    -1.5160 hc         1 I1H       0.071200
     43 H16         -6.7030    -0.6320     0.8840 ha         1 I1H       0.123000
     44 H17         -7.5740    -2.9040     0.3850 ha         1 I1H       0.135000
     45 H19         -5.4220    -2.9290    -3.3490 ha         1 I1H       0.146000
     46 H24          2.5620     2.2220     2.6440 hn         1 I1H       0.313500
     47 H251         4.0030     0.6890     3.7720 h1         1 I1H       0.055700
     48 H252         3.1880    -0.6810     2.9990 h1         1 I1H       0.055700
     49 H26          5.0040     1.3490     1.6070 hc         1 I1H       0.047700
     50 H291         6.2970    -0.1450     3.1230 hc         1 I1H       0.055450
     51 H292         5.5510    -1.5720     2.4100 hc         1 I1H       0.055450
     52 H301         7.4070     0.4220     0.9850 h1         1 I1H       0.043450
     53 H302         7.7970    -1.2370     1.4620 h1         1 I1H       0.043450
     54 H321         5.6050     0.7490    -0.9320 h1         1 I1H       0.043450
     55 H322         4.8760    -0.7220    -1.6070 h1         1 I1H       0.043450
     56 H331         3.7220    -1.2210     0.4920 hc         1 I1H       0.055450
     57 H332         3.3450     0.4230    -0.0120 hc         1 I1H       0.055450
     58 H44          6.9750    -0.4510    -2.7910 ha         1 I1H       0.117500
     59 H45          8.4700    -1.7640    -4.2820 h4         1 I1H       0.012100
     60 H47          9.3160    -4.4900    -1.2690 h4         1 I1H       0.012100
     61 H48          7.8400    -3.2900     0.3420 ha         1 I1H       0.117500
     62 H7C1        -2.2520     6.4950     1.9890 h1         1 I1H       0.042033
     63 H7C2        -1.5740     6.6380     0.3450 h1         1 I1H       0.042033
     64 H7C3        -3.3160     6.8510     0.6130 h1         1 I1H       0.042033
@<TRIPOS>BOND
     1     1     2 ar  
     2     1     6 ar  
     3     1     7 1   
     4     2     3 ar  
     5     2     8 1   
     6     3     4 ar  
     7     3    36 1   
     8     4     5 ar  
     9     4    19 1   
    10     5     6 ar  
    11     5    37 1   
    12     6    38 1   
    13     7    35 1   
    14     8     9 1   
    15     9    10 1   
    16     9    39 1   
    17     9    40 1   
    18    10    11 1   
    19    10    41 1   
    20    10    42 1   
    21    11    12 ar  
    22    11    16 ar  
    23    12    13 ar  
    24    12    43 1   
    25    13    14 ar  
    26    13    44 1   
    27    14    15 ar  
    28    14    18 1   
    29    15    16 ar  
    30    15    45 1   
    31    16    17 1   
    32    19    20 1   
    33    19    34 2   
    34    20    21 1   
    35    20    46 1   
    36    21    22 1   
    37    21    47 1   
    38    21    48 1   
    39    22    23 1   
    40    22    27 1   
    41    22    49 1   
    42    23    24 1   
    43    23    50 1   
    44    23    51 1   
    45    24    25 1   
    46    24    52 1   
    47    24    53 1   
    48    25    26 1   
    49    25    28 1   
    50    26    27 1   
    51    26    54 1   
    52    26    55 1   
    53    27    56 1   
    54    27    57 1   
    55    28    29 ar  
    56    28    33 ar  
    57    29    30 ar  
    58    29    58 1   
    59    30    31 ar  
    60    30    59 1   
    61    31    32 ar  
    62    32    33 ar  
    63    32    60 1   
    64    33    61 1   
    65    35    62 1   
    66    35    63 1   
    67    35    64 1   
@<TRIPOS>SUBSTRUCTURE
     1 I1H         1 TEMP              0 ****  ****    0 ROOT
