@<TRIPOS>MOLECULE
I1H
   64    67     1     0     0
SMALL
bcc


@<TRIPOS>ATOM
      1 C1          -1.6450     3.6640     0.5040 ca         1 I1H       0.136100
      2 C2          -2.1640     2.3530     0.4240 ca         1 I1H       0.107100
      3 C3          -1.3520     1.2770     0.7190 ca         1 I1H      -0.139000
      4 C4          -0.0130     1.4630     1.0850 ca         1 I1H      -0.148600
      5 C5           0.4850     2.7520     1.1750 ca         1 I1H      -0.101000
      6 C6          -0.3260     3.8460     0.8860 ca         1 I1H      -0.205000
      7 O7          -2.5020     4.6470     0.2000 os         1 I1H      -0.293900
      8 O8          -3.4560     2.2680     0.0560 os         1 I1H      -0.306900
      9 C9          -4.0670     0.9910     0.0330 c3         1 I1H       0.137400
     10 C10         -5.5250     1.1910    -0.3540 c3         1 I1H      -0.033100
     11 C13         -6.2480    -0.1240    -0.3870 ca         1 I1H      -0.073300
     12 C16         -6.9660    -0.5540     0.7270 ca         1 I1H      -0.110000
     13 C17         -7.6280    -1.7700     0.7580 ca         1 I1H      -0.118000
     14 C18         -7.5720    -2.5860    -0.3590 ca         1 I1H       0.035400
     15 C19         -6.8700    -2.2050    -1.4900 ca         1 I1H      -0.115000
     16 C20         -6.2180    -0.9810    -1.4840 ca         1 I1H       0.038400
     17 CL21        -5.3440    -0.5310    -2.9130 cl         1 I1H      -0.102400
     18 CL22        -8.3900    -4.1110    -0.3510 cl         1 I1H      -0.099400
     19 C23          0.7900     0.2410     1.3860 c          1 I1H       0.683700
     20 N24          2.1240     0.3760     1.3750 ns         1 I1H      -0.572900
     21 C25          3.0260    -0.7080     1.7050 c3         1 I1H       0.109000
     22 C26          4.4560    -0.3740     1.3090 c6         1 I1H      -0.080700
     23 C29          5.4090    -1.4610     1.7840 c6         1 I1H      -0.083400
     24 C30          6.8440    -1.1460     1.3960 c6         1 I1H       0.214800
     25 N31          6.9910    -0.9280    -0.0370 nh         1 I1H      -0.666000
     26 C32          6.0770     0.0680    -0.5760 c6         1 I1H       0.214800
     27 C33          4.6320    -0.2170    -0.1960 c6         1 I1H      -0.083400
     28 C43          8.1950    -1.1520    -0.6470 ca         1 I1H       0.227600
     29 C44          8.5700    -0.5210    -1.8500 ca         1 I1H      -0.327300
     30 C45          9.7820    -0.8220    -2.4400 ca         1 I1H       0.430200
     31 N46         10.6730    -1.6810    -1.9570 nb         1 I1H      -0.694000
     32 C47         10.3300    -2.2710    -0.8140 ca         1 I1H       0.430200
     33 C48          9.1510    -2.0510    -0.1330 ca         1 I1H      -0.327300
     34 O52          0.2460    -0.8340     1.6150 o          1 I1H      -0.609100
     35 C7          -2.0400     5.9840     0.2540 c3         1 I1H       0.121700
     36 H3          -1.7350     0.2680     0.6630 ha         1 I1H       0.164000
     37 H5           1.5010     2.9520     1.4900 ha         1 I1H       0.125000
     38 H6           0.0920     4.8390     0.9760 ha         1 I1H       0.139000
     39 H9C1        -3.5640     0.3350    -0.6860 h1         1 I1H       0.043700
     40 H9C2        -4.0050     0.5160     1.0180 h1         1 I1H       0.043700
     41 H101        -6.0040     1.8430     0.3770 hc         1 I1H       0.071200
     42 H102        -5.5840     1.6920    -1.3220 hc         1 I1H       0.071200
     43 H16         -7.0100     0.0890     1.5980 ha         1 I1H       0.141000
     44 H17         -8.1800    -2.0710     1.6370 ha         1 I1H       0.153000
     45 H19         -6.8310    -2.8450    -2.3610 ha         1 I1H       0.164000
     46 H24          2.5310     1.2710     1.1630 hn         1 I1H       0.313500
     47 H251         2.9830    -0.9210     2.7780 h1         1 I1H       0.055700
     48 H252         2.7060    -1.6160     1.1870 h1         1 I1H       0.055700
     49 H26          4.7460     0.5660     1.7980 hc         1 I1H       0.047700
     50 H291         5.3630    -1.5700     2.8700 hc         1 I1H       0.055450
     51 H292         5.1170    -2.4230     1.3500 hc         1 I1H       0.055450
     52 H301         7.1820    -0.2540     1.9420 h1         1 I1H       0.043450
     53 H302         7.4720    -1.9700     1.7190 h1         1 I1H       0.043450
     54 H321         6.3610     1.0730    -0.2360 h1         1 I1H       0.043450
     55 H322         6.1360     0.0690    -1.6620 h1         1 I1H       0.043450
     56 H331         4.3000    -1.1340    -0.6950 hc         1 I1H       0.055450
     57 H332         4.0210     0.5970    -0.5910 hc         1 I1H       0.055450
     58 H44          7.9470     0.2140    -2.3360 ha         1 I1H       0.135500
     59 H45         10.0460    -0.3210    -3.3660 h4         1 I1H       0.012100
     60 H47         11.0450    -2.9740    -0.4000 h4         1 I1H       0.012100
     61 H48          8.9940    -2.6010     0.7830 ha         1 I1H       0.135500
     62 H7C1        -1.7140     6.2610     1.2600 h1         1 I1H       0.042033
     63 H7C2        -1.2190     6.1590    -0.4450 h1         1 I1H       0.042033
     64 H7C3        -2.8810     6.6110    -0.0270 h1         1 I1H       0.042033
@<TRIPOS>BOND
     1     1     2 ar  
     2     1     6 ar  
     3     1     7 1   
     4     2     3 ar  
     5     2     8 1   
     6     3     4 ar  
     7     3    36 1   
     8     4     5 ar  
     9     4    19 1   
    10     5     6 ar  
    11     5    37 1   
    12     6    38 1   
    13     7    35 1   
    14     8     9 1   
    15     9    10 1   
    16     9    39 1   
    17     9    40 1   
    18    10    11 1   
    19    10    41 1   
    20    10    42 1   
    21    11    12 ar  
    22    11    16 ar  
    23    12    13 ar  
    24    12    43 1   
    25    13    14 ar  
    26    13    44 1   
    27    14    15 ar  
    28    14    18 1   
    29    15    16 ar  
    30    15    45 1   
    31    16    17 1   
    32    19    20 1   
    33    19    34 2   
    34    20    21 1   
    35    20    46 1   
    36    21    22 1   
    37    21    47 1   
    38    21    48 1   
    39    22    23 1   
    40    22    27 1   
    41    22    49 1   
    42    23    24 1   
    43    23    50 1   
    44    23    51 1   
    45    24    25 1   
    46    24    52 1   
    47    24    53 1   
    48    25    26 1   
    49    25    28 1   
    50    26    27 1   
    51    26    54 1   
    52    26    55 1   
    53    27    56 1   
    54    27    57 1   
    55    28    29 ar  
    56    28    33 ar  
    57    29    30 ar  
    58    29    58 1   
    59    30    31 ar  
    60    30    59 1   
    61    31    32 ar  
    62    32    33 ar  
    63    32    60 1   
    64    33    61 1   
    65    35    62 1   
    66    35    63 1   
    67    35    64 1   
@<TRIPOS>SUBSTRUCTURE
     1 I1H         1 TEMP              0 ****  ****    0 ROOT
