@<TRIPOS>MOLECULE
I1I
   31    32     1     0     0
SMALL
No Charge or Current Charge


@<TRIPOS>ATOM
      1 N1          -3.4920    -4.5850   -39.3940 n1         1 I1I      -0.458000
      2 C4          -5.7330    -7.1950   -38.8800 ca         1 I1I      -0.131300
      3 C5          -5.6700    -7.2020   -37.4690 ca         1 I1I      -0.055000
      4 C6          -6.8390    -7.3670   -36.7050 ca         1 I1I      -0.175500
      5 C7          -4.4660    -7.0160   -39.7260 c3         1 I1I       0.059700
      6 C8          -3.4230    -8.1330   -39.4520 c3         1 I1I      -0.014100
      7 C10         -2.3800    -8.5910   -41.7120 ca         1 I1I      -0.063000
      8 C13          0.1040    -7.5410   -40.9310 ca         1 I1I      -0.202000
      9 C15         -3.9090    -5.6650   -39.5310 c1         1 I1I       0.305900
     10 C1          -8.0790    -7.5260   -37.3430 ca         1 I1I       0.148100
     11 C2          -8.1510    -7.5180   -38.7430 ca         1 I1I      -0.175500
     12 C3          -6.9850    -7.3530   -39.5110 ca         1 I1I      -0.055000
     13 C9          -2.2230    -8.0890   -40.4040 ca         1 I1I      -0.120300
     14 C11         -1.3070    -8.5670   -42.6180 ca         1 I1I      -0.144000
     15 C12         -0.0680    -8.0420   -42.2290 ca         1 I1I       0.157100
     16 O2           0.9670    -8.0230   -43.1160 oh         1 I1I      -0.529100
     17 C14         -0.9650    -7.5620   -40.0190 ca         1 I1I       0.177000
     18 Cl1         -0.6830    -6.9100   -38.4040 cl         1 I1I      -0.201000
     19 H1          -4.7170    -7.0750   -36.9590 ha         1 I1I       0.118500
     20 H2          -6.7730    -7.3700   -35.6200 ha         1 I1I       0.123500
     21 H3          -4.7340    -7.0820   -40.7870 hc         1 I1I       0.075700
     22 H4          -3.9280    -9.1010   -39.5630 hc         1 I1I       0.064200
     23 H5          -3.1070    -8.1010   -38.4030 hc         1 I1I       0.064200
     24 H6          -3.3360    -9.0020   -42.0290 ha         1 I1I       0.117000
     25 H7           1.0610    -7.1310   -40.6200 ha         1 I1I       0.131000
     26 H8          -8.9770    -7.6660   -35.6590 ho         1 I1I       0.468000
     27 H9          -9.1120    -7.6400   -39.2360 ha         1 I1I       0.123500
     28 H10         -7.0590    -7.3490   -40.5970 ha         1 I1I       0.118500
     29 H11         -1.4380    -8.9560   -43.6250 ha         1 I1I       0.134000
     30 H12          1.7480    -7.6250   -42.6750 ho         1 I1I       0.471000
     31 O1          -9.2160    -7.6870   -36.6100 oh         1 I1I      -0.531100
@<TRIPOS>BOND
     1     1     9 3   
     2     2     3 ar  
     3     2     5 1   
     4     2    12 ar  
     5     3     4 ar  
     6     3    19 1   
     7     4    10 ar  
     8     4    20 1   
     9     5     6 1   
    10     5     9 1   
    11     5    21 1   
    12     6    13 1   
    13     6    22 1   
    14     6    23 1   
    15     7    13 ar  
    16     7    14 ar  
    17     7    24 1   
    18     8    15 ar  
    19     8    17 ar  
    20     8    25 1   
    21    10    11 ar  
    22    10    31 1   
    23    11    12 ar  
    24    11    27 1   
    25    12    28 1   
    26    13    17 ar  
    27    14    15 ar  
    28    14    29 1   
    29    15    16 1   
    30    16    30 1   
    31    17    18 1   
    32    26    31 1   
@<TRIPOS>SUBSTRUCTURE
     1 I1I         1 TEMP              0 ****  ****    0 ROOT
