@<TRIPOS>MOLECULE
I1I
   31    32     1     0     0
SMALL
bcc


@<TRIPOS>ATOM
      1 N1          -3.3600    -4.8450   -39.5890 n1         1 I1I      -0.368800
      2 C4          -5.7520    -7.2270   -38.9420 ca         1 I1I      -0.131300
      3 C5          -5.5910    -7.0550   -37.5710 ca         1 I1I      -0.073000
      4 C6          -6.6680    -7.1530   -36.7080 ca         1 I1I      -0.193500
      5 C7          -4.5660    -7.1440   -39.8770 c3         1 I1I       0.059700
      6 C8          -3.5950    -8.3330   -39.6880 c3         1 I1I      -0.014100
      7 C10         -2.3210    -8.5310   -41.8420 ca         1 I1I      -0.081000
      8 C13          0.0040    -7.5500   -40.7280 ca         1 I1I      -0.220000
      9 C15         -3.8820    -5.8620   -39.7120 c1         1 I1I       0.216700
     10 C1          -7.9400    -7.4290   -37.2080 ca         1 I1I       0.148100
     11 C2          -8.1100    -7.6100   -38.5790 ca         1 I1I      -0.193500
     12 C3          -7.0220    -7.5060   -39.4310 ca         1 I1I      -0.073000
     13 C9          -2.3340    -8.1940   -40.4880 ca         1 I1I      -0.120300
     14 C11         -1.1980    -8.3890   -42.6340 ca         1 I1I      -0.162000
     15 C12         -0.0210    -7.8920   -42.0760 ca         1 I1I       0.157100
     16 O2           1.0520    -7.7670   -42.8760 oh         1 I1I      -0.490100
     17 C14         -1.1430    -7.7020   -39.9640 ca         1 I1I       0.085400
     18 CL1         -1.0440    -7.2540   -38.2880 cl         1 I1I      -0.109400
     19 H1          -4.6110    -6.8380   -37.1600 ha         1 I1I       0.136500
     20 H2          -6.5180    -7.0110   -35.6440 ha         1 I1I       0.141500
     21 H3          -4.9240    -7.1580   -40.9100 hc         1 I1I       0.075700
     22 H4          -4.1370    -9.2250   -40.0040 hc         1 I1I       0.064200
     23 H5          -3.3800    -8.4550   -38.6280 hc         1 I1I       0.064200
     24 H6          -3.2290    -8.9230   -42.2870 ha         1 I1I       0.135000
     25 H7           0.9100    -7.1670   -40.2750 ha         1 I1I       0.149000
     26 H8          -8.7960    -7.3780   -35.4980 ho         1 I1I       0.429000
     27 H9          -9.0940    -7.8260   -38.9740 ha         1 I1I       0.141500
     28 H10         -7.1720    -7.6440   -40.4950 ha         1 I1I       0.136500
     29 H11         -1.2260    -8.6640   -43.6810 ha         1 I1I       0.152000
     30 H12          1.8040    -7.4040   -42.3930 ho         1 I1I       0.432000
     31 O1          -9.0270    -7.5320   -36.4210 oh         1 I1I      -0.492100
@<TRIPOS>BOND
     1     1     9 3   
     2     2     3 ar  
     3     2     5 1   
     4     2    12 ar  
     5     3     4 ar  
     6     3    19 1   
     7     4    10 ar  
     8     4    20 1   
     9     5     6 1   
    10     5     9 1   
    11     5    21 1   
    12     6    13 1   
    13     6    22 1   
    14     6    23 1   
    15     7    13 ar  
    16     7    14 ar  
    17     7    24 1   
    18     8    15 ar  
    19     8    17 ar  
    20     8    25 1   
    21    10    11 ar  
    22    10    31 1   
    23    11    12 ar  
    24    11    27 1   
    25    12    28 1   
    26    13    17 ar  
    27    14    15 ar  
    28    14    29 1   
    29    15    16 1   
    30    16    30 1   
    31    17    18 1   
    32    26    31 1   
@<TRIPOS>SUBSTRUCTURE
     1 I1I         1 TEMP              0 ****  ****    0 ROOT
