@<TRIPOS>MOLECULE
I1J
   12    11     1     0     0
SMALL
bcc


@<TRIPOS>ATOM
      1 C1          -5.6010    18.1040   -13.3230 c3         1 I1J      -0.091800
      2 C2          -4.3080    18.7730   -12.9130 c          1 I1J       0.579100
      3 C3          -3.0940    17.8740   -12.9380 c3         1 I1J      -0.091800
      4 O4          -4.2660    19.9330   -12.5930 o          1 I1J      -0.479100
      5 S5          -5.7030    18.1430   -15.1500 sh         1 I1J      -0.344400
      6 S6          -1.5100    18.7260   -12.8030 sh         1 I1J      -0.344400
      7 H1          -6.4560    18.6340   -12.9060 h1         1 I1J       0.088950
      8 H2          -5.6340    17.0650   -12.9980 h1         1 I1J       0.088950
      9 H3          -3.0730    17.3070   -13.8710 h1         1 I1J       0.088950
     10 H4          -3.2060    17.1340   -12.1400 h1         1 I1J       0.088950
     11 H5          -5.6340    16.8250   -15.3600 hs         1 I1J       0.208800
     12 H6          -1.6440    19.1500   -11.5420 hs         1 I1J       0.208800
@<TRIPOS>BOND
     1     1     2 1   
     2     1     5 1   
     3     1     7 1   
     4     1     8 1   
     5     2     3 1   
     6     2     4 2   
     7     3     6 1   
     8     3     9 1   
     9     3    10 1   
    10     5    11 1   
    11     6    12 1   
@<TRIPOS>SUBSTRUCTURE
     1 I1J         1 TEMP              0 ****  ****    0 ROOT
