@<TRIPOS>MOLECULE
I1J
   12    11     1     0     0
SMALL
No Charge or Current Charge


@<TRIPOS>ATOM
      1 C1          -5.6820    18.0540   -13.3180 c3         1 I1J      -0.043900
      2 C2          -4.3370    18.6620   -12.8830 c          1 I1J       0.579100
      3 C3          -3.1510    17.6810   -12.7780 c3         1 I1J      -0.043900
      4 O4          -4.2240    19.8560   -12.6260 o          1 I1J      -0.479100
      5 S5          -5.9810    18.2450   -15.1520 sh         1 I1J      -0.392300
      6 S6          -1.4880    18.5130   -12.9730 sh         1 I1J      -0.392300
      7 H1          -6.4810    18.5610   -12.7630 h1         1 I1J       0.088950
      8 H2          -5.6930    16.9890   -13.0530 h1         1 I1J       0.088950
      9 H3          -3.2620    16.9170   -13.5580 h1         1 I1J       0.088950
     10 H4          -3.2070    17.1870   -11.8000 h1         1 I1J       0.088950
     11 H5          -4.9220    17.5070   -15.5720 hs         1 I1J       0.208800
     12 H6          -1.7010    19.4950   -12.0610 hs         1 I1J       0.208800
@<TRIPOS>BOND
     1     1     2 1   
     2     1     5 1   
     3     1     7 1   
     4     1     8 1   
     5     2     3 1   
     6     2     4 2   
     7     3     6 1   
     8     3     9 1   
     9     3    10 1   
    10     5    11 1   
    11     6    12 1   
@<TRIPOS>SUBSTRUCTURE
     1 I1J         1 TEMP              0 ****  ****    0 ROOT
