@<TRIPOS>MOLECULE
I1K
   87    91     1     0     0
SMALL
No Charge or Current Charge


@<TRIPOS>ATOM
      1 N1           4.3600    20.5840   -25.5080 nb         1 I1K      -0.302000
      2 C7           1.5120    25.8610   -29.4360 c3         1 I1K       0.159800
      3 C8           2.8100    27.9430   -29.9750 c3         1 I1K       0.148800
      4 N2           3.4360    20.9630   -27.7130 nb         1 I1K      -0.218000
      5 C9           1.6380    28.7590   -30.5820 c3         1 I1K       0.077000
      6 O1           0.1840    31.2020   -31.0100 o          1 I1K      -0.637100
      7 C1           3.6950    20.2010   -26.6240 ca         1 I1K       0.182900
      8 C5           3.2070    23.2180   -29.9200 c5         1 I1K       0.273300
      9 C6           1.9840    25.0770   -30.7100 c5         1 I1K       0.123300
     10 N3           4.9690    24.0420   -26.7520 nc         1 I1K      -0.555100
     11 C4           4.4790    24.3250   -27.9750 cd         1 I1K       0.412700
     12 C3           4.5810    22.7180   -26.5850 ca         1 I1K      -0.100600
     13 O3           1.4150    21.4400   -30.2390 oh         1 I1K      -0.674000
     14 C2           3.8940    22.2310   -27.6690 ca         1 I1K       0.134500
     15 N4           3.8110    23.2460   -28.5870 na         1 I1K      -0.295300
     16 C10          1.3430    31.1160   -31.3770 c          1 I1K       0.654100
     17 N7           2.0380    32.1450   -31.9460 ns         1 I1K      -0.522900
     18 C11          1.5050    33.4930   -32.1340 c3         1 I1K       0.165300
     19 C12          1.5250    34.3060   -30.8430 ca         1 I1K      -0.100300
     20 C17          2.7420    34.5560   -30.1780 ca         1 I1K      -0.100500
     21 C16          2.7600    35.3060   -28.9890 ca         1 I1K      -0.108000
     22 C15          1.5620    35.8150   -28.4590 ca         1 I1K      -0.110000
     23 C14          0.3460    35.5710   -29.1180 ca         1 I1K      -0.108000
     24 C13          0.3270    34.8180   -30.3060 ca         1 I1K      -0.100500
     25 N6           2.0920    29.9770   -31.2640 ns         1 I1K      -0.530900
     26 C18          1.9750    27.5810   -27.6840 c3         1 I1K       0.163800
     27 C19          1.8430    26.6540   -26.4560 c3         1 I1K      -0.111400
     28 C20          1.6820    27.4380   -25.1370 c3         1 I1K       0.219800
     29 N8           0.4270    28.2010   -25.1240 nu         1 I1K      -0.911400
     30 C21          0.3160    29.3840   -24.5560 c2         1 I1K       0.831100
     31 N10          0.3120    29.4250   -23.3110 n2         1 I1K      -0.923100
     32 N9          -0.7270    29.9260   -25.1700 nu         1 I1K      -0.980400
     33 C22         -0.4230    31.1770   -25.9470 c5         1 I1K       0.239500
     34 C26          0.3580    32.1970   -25.0740 c5         1 I1K      -0.098400
     35 C25          0.8180    33.1970   -26.1750 c5         1 I1K      -0.080400
     36 C24          1.0420    32.3170   -27.4560 c5         1 I1K      -0.080400
     37 C23          0.6420    30.8730   -27.0310 c5         1 I1K      -0.098400
     38 O            3.3150    24.5280   -30.5330 os         1 I1K      -0.430000
     39 C27          1.1340    23.8140   -31.0650 c5         1 I1K       0.143300
     40 O2           1.3880    23.3660   -32.4150 oh         1 I1K      -0.683000
     41 C28          1.6800    22.8320   -29.9680 c5         1 I1K       0.141300
     42 C            4.8000    21.8510   -25.4940 ca         1 I1K       0.450900
     43 N            5.4730    22.2360   -24.3770 nv         1 I1K      -1.064900
     44 H1           0.5270    26.2930   -29.6590 h1         1 I1K       0.031700
     45 H2           1.3530    25.1380   -28.6300 h1         1 I1K       0.031700
     46 H3           3.3580    27.4610   -30.7960 h1         1 I1K       0.062700
     47 H4           3.5160    28.6550   -29.5250 h1         1 I1K       0.062700
     48 H5           0.9480    29.0540   -29.7820 h1         1 I1K       0.052200
     49 H6           1.0810    28.1370   -31.2940 h1         1 I1K       0.052200
     50 H7           3.3320    19.1750   -26.6480 h5         1 I1K       0.047100
     51 H8           3.7930    22.5020   -30.5100 h2         1 I1K       0.123700
     52 H9           2.0040    25.7800   -31.5520 h1         1 I1K       0.070700
     53 H10          4.5810    25.2790   -28.4780 h5         1 I1K       0.068800
     54 H11          1.7820    20.9230   -29.4840 ho         1 I1K       0.515000
     55 H12          2.9950    31.9650   -32.2170 hn         1 I1K       0.305500
     56 H13          0.4800    33.4220   -32.5220 h1         1 I1K       0.058700
     57 H14          2.1100    34.0070   -32.8920 h1         1 I1K       0.058700
     58 H15          3.6740    34.1680   -30.5810 ha         1 I1K       0.108000
     59 H16          3.7020    35.4930   -28.4790 ha         1 I1K       0.112500
     60 H17          1.5760    36.3950   -27.5390 ha         1 I1K       0.112000
     61 H18         -0.5830    35.9620   -28.7080 ha         1 I1K       0.112500
     62 H19         -0.6210    34.6320   -30.8060 ha         1 I1K       0.108000
     63 H20          3.0390    30.0100   -31.6190 hn         1 I1K       0.306500
     64 H22          2.6910    28.3710   -27.4180 h1         1 I1K       0.050200
     65 H23          1.0050    28.0690   -27.8430 h1         1 I1K       0.050200
     66 H24          0.9950    25.9710   -26.5800 hc         1 I1K       0.042200
     67 H25          2.7460    26.0380   -26.3790 hc         1 I1K       0.042200
     68 H26          1.7020    26.7380   -24.2900 h1         1 I1K       0.067700
     69 H27          2.5410    28.1150   -25.0220 h1         1 I1K       0.067700
     70 H28         -0.1250    28.2030   -25.9660 hn         1 I1K       0.457000
     71 H29         -0.1770    30.2890   -23.0620 hn         1 I1K       0.393400
     72 H30         -1.5620    29.8970   -24.5980 hn         1 I1K       0.477000
     73 H31         -1.3280    31.6250   -26.3840 h1         1 I1K       0.045700
     74 H32         -0.2710    32.6720   -24.3120 hc         1 I1K       0.053950
     75 H33          1.2340    31.7750   -24.5680 hc         1 I1K       0.053950
     76 H34          1.7250    33.7370   -25.8820 hc         1 I1K       0.047450
     77 H35          0.0470    33.9550   -26.3610 hc         1 I1K       0.047450
     78 H36          2.0780    32.3600   -27.8120 hc         1 I1K       0.047450
     79 H37          0.4120    32.6690   -28.2810 hc         1 I1K       0.047450
     80 H38          0.2340    30.2940   -27.8660 hc         1 I1K       0.053950
     81 H39          1.5190    30.3420   -26.6470 hc         1 I1K       0.053950
     82 H40          0.0600    24.0030   -30.9210 h1         1 I1K       0.059700
     83 H41          0.8890    23.9600   -33.0210 ho         1 I1K       0.505000
     84 H42          1.2190    23.0820   -29.0030 h1         1 I1K       0.041700
     85 H43          5.8550    21.5100   -23.7760 hn         1 I1K       0.506000
     86 H44          5.9990    23.1050   -24.4330 hn         1 I1K       0.506000
     87 N5           2.4270    26.9340   -28.9440 n3         1 I1K      -0.713600
@<TRIPOS>BOND
     1     1     7 ar  
     2     1    42 ar  
     3     2     9 1   
     4     2    44 1   
     5     2    45 1   
     6     2    87 1   
     7     3     5 1   
     8     3    46 1   
     9     3    47 1   
    10     3    87 1   
    11     4     7 ar  
    12     4    14 ar  
    13     5    25 1   
    14     5    48 1   
    15     5    49 1   
    16     6    16 2   
    17     7    50 1   
    18     8    15 1   
    19     8    38 1   
    20     8    41 1   
    21     8    51 1   
    22     9    38 1   
    23     9    39 1   
    24     9    52 1   
    25    10    11 2   
    26    10    12 1   
    27    11    15 1   
    28    11    53 1   
    29    12    14 ar  
    30    12    42 ar  
    31    13    41 1   
    32    13    54 1   
    33    14    15 1   
    34    16    17 1   
    35    16    25 1   
    36    17    18 1   
    37    17    55 1   
    38    18    19 1   
    39    18    56 1   
    40    18    57 1   
    41    19    20 ar  
    42    19    24 ar  
    43    20    21 ar  
    44    20    58 1   
    45    21    22 ar  
    46    21    59 1   
    47    22    23 ar  
    48    22    60 1   
    49    23    24 ar  
    50    23    61 1   
    51    24    62 1   
    52    25    63 1   
    53    26    27 1   
    54    26    64 1   
    55    26    65 1   
    56    26    87 1   
    57    27    28 1   
    58    27    66 1   
    59    27    67 1   
    60    28    29 1   
    61    28    68 1   
    62    28    69 1   
    63    29    30 1   
    64    29    70 1   
    65    30    31 2   
    66    30    32 1   
    67    31    71 1   
    68    32    33 1   
    69    32    72 1   
    70    33    34 1   
    71    33    37 1   
    72    33    73 1   
    73    34    35 1   
    74    34    74 1   
    75    34    75 1   
    76    35    36 1   
    77    35    76 1   
    78    35    77 1   
    79    36    37 1   
    80    36    78 1   
    81    36    79 1   
    82    37    80 1   
    83    37    81 1   
    84    39    40 1   
    85    39    41 1   
    86    39    82 1   
    87    40    83 1   
    88    41    84 1   
    89    42    43 1   
    90    43    85 1   
    91    43    86 1   
@<TRIPOS>SUBSTRUCTURE
     1 I1K         1 TEMP              0 ****  ****    0 ROOT
