@<TRIPOS>MOLECULE
I1K
   87    91     1     0     0
SMALL
abcg2


@<TRIPOS>ATOM
      1 N1           7.1050    20.8520   -27.6280 nb         1 I1K      -0.302000
      2 C7           0.9960    25.8310   -28.9660 c3         1 I1K       0.159800
      3 C8           2.4130    27.7610   -29.4760 c3         1 I1K       0.148800
      4 N2           5.4730    21.4720   -29.2580 nb         1 I1K      -0.218000
      5 C9           1.3960    28.5590   -30.3030 c3         1 I1K       0.077000
      6 O1           0.7050    31.2910   -30.6270 o          1 I1K      -0.637100
      7 C1           6.5750    20.8670   -28.8480 ca         1 I1K       0.182900
      8 C5           2.9320    23.1510   -29.4820 c5         1 I1K       0.273300
      9 C6           1.6080    24.9720   -30.0650 c5         1 I1K       0.123300
     10 N3           4.4590    22.9880   -26.2070 nc         1 I1K      -0.555100
     11 C4           3.5430    23.3640   -27.0480 cd         1 I1K       0.412700
     12 C3           5.3070    22.2090   -26.9530 ca         1 I1K      -0.100600
     13 O3           1.2150    21.3990   -29.6580 oh         1 I1K      -0.674000
     14 C2           4.8770    22.1310   -28.2670 ca         1 I1K       0.134500
     15 N4           3.7290    22.8720   -28.3130 na         1 I1K      -0.295300
     16 C10          1.7020    30.8430   -31.1830 c          1 I1K       0.654100
     17 N7           2.5100    31.6330   -31.9470 ns         1 I1K      -0.522900
     18 C11          2.2970    33.0530   -32.0170 c3         1 I1K       0.165300
     19 C12          2.5830    33.8170   -30.7430 ca         1 I1K      -0.100300
     20 C17          3.5180    33.3700   -29.8140 ca         1 I1K      -0.100500
     21 C16          3.7930    34.1120   -28.6730 ca         1 I1K      -0.108000
     22 C15          3.1410    35.3160   -28.4450 ca         1 I1K      -0.110000
     23 C14          2.2060    35.7700   -29.3670 ca         1 I1K      -0.108000
     24 C13          1.9300    35.0230   -30.5040 ca         1 I1K      -0.100500
     25 N6           2.0770    29.5410   -31.1110 ns         1 I1K      -0.530900
     26 C18          1.3000    27.5990   -27.3490 c3         1 I1K       0.163800
     27 C19          1.1290    26.7620   -26.0860 c3         1 I1K      -0.111400
     28 C20          0.9250    27.6090   -24.8290 c3         1 I1K       0.219800
     29 N8          -0.2010    28.5150   -24.8810 nu         1 I1K      -0.911400
     30 C21         -0.0710    29.8110   -25.3270 c2         1 I1K       0.831100
     31 N10          1.0960    30.3270   -25.4890 n2         1 I1K      -0.923100
     32 N9          -1.2770    30.4180   -25.5410 nu         1 I1K      -0.980400
     33 C22         -1.4730    31.7460   -26.0800 c5         1 I1K       0.239500
     34 C26         -1.0100    32.9230   -25.1930 c5         1 I1K      -0.098400
     35 C25         -0.6660    34.0270   -26.1900 c5         1 I1K      -0.080400
     36 C24         -0.0050    33.2740   -27.3450 c5         1 I1K      -0.080400
     37 C23         -0.8240    31.9870   -27.4710 c5         1 I1K      -0.098400
     38 O            2.9200    24.5300   -29.7120 os         1 I1K      -0.430000
     39 C27          0.7940    23.6980   -30.3200 c5         1 I1K       0.143300
     40 O2           0.9730    23.1950   -31.6170 oh         1 I1K      -0.683000
     41 C28          1.4600    22.7330   -29.3480 c5         1 I1K       0.141300
     42 C            6.4930    21.5180   -26.6430 ca         1 I1K       0.450900
     43 N            7.0170    21.4970   -25.4160 nv         1 I1K      -1.064900
     44 H1           0.0420    26.2250   -29.3560 h1         1 I1K       0.031700
     45 H2           0.7250    25.1900   -28.1220 h1         1 I1K       0.031700
     46 H3           3.0610    27.2000   -30.1570 h1         1 I1K       0.062700
     47 H4           3.0670    28.4750   -28.9670 h1         1 I1K       0.062700
     48 H5           0.6990    29.0800   -29.6480 h1         1 I1K       0.052200
     49 H6           0.7990    27.8890   -30.9310 h1         1 I1K       0.052200
     50 H7           7.1220    20.3100   -29.6010 h5         1 I1K       0.047100
     51 H8           3.4020    22.6050   -30.3070 h2         1 I1K       0.123700
     52 H9           1.6860    25.5550   -30.9890 h1         1 I1K       0.070700
     53 H10          2.7100    24.0080   -26.8070 h5         1 I1K       0.068800
     54 H11          1.4800    20.8580   -28.9070 ho         1 I1K       0.515000
     55 H12          3.3980    31.2790   -32.2610 hn         1 I1K       0.305500
     56 H13          1.2750    33.2620   -32.3400 h1         1 I1K       0.058700
     57 H14          2.9450    33.4300   -32.8110 h1         1 I1K       0.058700
     58 H15          4.0330    32.4310   -29.9760 ha         1 I1K       0.108000
     59 H16          4.5210    33.7470   -27.9590 ha         1 I1K       0.112500
     60 H17          3.3540    35.8930   -27.5550 ha         1 I1K       0.112000
     61 H18          1.6840    36.7030   -29.1970 ha         1 I1K       0.112500
     62 H19          1.1920    35.3820   -31.2130 ha         1 I1K       0.108000
     63 H20          2.8650    29.2260   -31.6550 hn         1 I1K       0.306500
     64 H22          1.9730    28.4270   -27.1220 h1         1 I1K       0.050200
     65 H23          0.3330    28.0560   -27.6100 h1         1 I1K       0.050200
     66 H24          0.2910    26.0660   -26.1880 hc         1 I1K       0.042200
     67 H25          2.0240    26.1510   -25.9360 hc         1 I1K       0.042200
     68 H26          0.7910    26.9410   -23.9750 h1         1 I1K       0.067700
     69 H27          1.8170    28.2020   -24.6310 h1         1 I1K       0.067700
     70 H28         -1.0860    28.0720   -25.0760 hn         1 I1K       0.457000
     71 H29          1.0430    31.3040   -25.7350 hn         1 I1K       0.393400
     72 H30         -2.0940    29.9670   -25.1650 hn         1 I1K       0.477000
     73 H31         -2.5530    31.8300   -26.1980 h1         1 I1K       0.045700
     74 H32         -1.7780    33.2120   -24.4740 hc         1 I1K       0.053950
     75 H33         -0.1240    32.6500   -24.6160 hc         1 I1K       0.053950
     76 H34         -0.0280    34.8030   -25.7630 hc         1 I1K       0.047450
     77 H35         -1.5800    34.5160   -26.5390 hc         1 I1K       0.047450
     78 H36          1.0350    33.0490   -27.0910 hc         1 I1K       0.047450
     79 H37          0.0210    33.8510   -28.2700 hc         1 I1K       0.047450
     80 H38         -1.6080    32.1140   -28.2180 hc         1 I1K       0.053950
     81 H39         -0.2230    31.1380   -27.7980 hc         1 I1K       0.053950
     82 H40         -0.2670    23.8510   -30.0840 h1         1 I1K       0.059700
     83 H41          0.6140    23.8310   -32.2440 ho         1 I1K       0.505000
     84 H42          1.1070    22.9780   -28.3370 h1         1 I1K       0.041700
     85 H43          7.8990    21.0440   -25.2520 hn         1 I1K       0.506000
     86 H44          6.6170    22.0420   -24.6720 hn         1 I1K       0.506000
     87 N5           1.8760    26.8680   -28.4690 n3         1 I1K      -0.713600
@<TRIPOS>BOND
     1     1     7 ar  
     2     1    42 ar  
     3     2     9 1   
     4     2    44 1   
     5     2    45 1   
     6     2    87 1   
     7     3     5 1   
     8     3    46 1   
     9     3    47 1   
    10     3    87 1   
    11     4     7 ar  
    12     4    14 ar  
    13     5    25 1   
    14     5    48 1   
    15     5    49 1   
    16     6    16 2   
    17     7    50 1   
    18     8    15 1   
    19     8    38 1   
    20     8    41 1   
    21     8    51 1   
    22     9    38 1   
    23     9    39 1   
    24     9    52 1   
    25    10    11 2   
    26    10    12 1   
    27    11    15 1   
    28    11    53 1   
    29    12    14 ar  
    30    12    42 ar  
    31    13    41 1   
    32    13    54 1   
    33    14    15 1   
    34    16    17 1   
    35    16    25 1   
    36    17    18 1   
    37    17    55 1   
    38    18    19 1   
    39    18    56 1   
    40    18    57 1   
    41    19    20 ar  
    42    19    24 ar  
    43    20    21 ar  
    44    20    58 1   
    45    21    22 ar  
    46    21    59 1   
    47    22    23 ar  
    48    22    60 1   
    49    23    24 ar  
    50    23    61 1   
    51    24    62 1   
    52    25    63 1   
    53    26    27 1   
    54    26    64 1   
    55    26    65 1   
    56    26    87 1   
    57    27    28 1   
    58    27    66 1   
    59    27    67 1   
    60    28    29 1   
    61    28    68 1   
    62    28    69 1   
    63    29    30 1   
    64    29    70 1   
    65    30    31 2   
    66    30    32 1   
    67    31    71 1   
    68    32    33 1   
    69    32    72 1   
    70    33    34 1   
    71    33    37 1   
    72    33    73 1   
    73    34    35 1   
    74    34    74 1   
    75    34    75 1   
    76    35    36 1   
    77    35    76 1   
    78    35    77 1   
    79    36    37 1   
    80    36    78 1   
    81    36    79 1   
    82    37    80 1   
    83    37    81 1   
    84    39    40 1   
    85    39    41 1   
    86    39    82 1   
    87    40    83 1   
    88    41    84 1   
    89    42    43 1   
    90    43    85 1   
    91    43    86 1   
@<TRIPOS>SUBSTRUCTURE
     1 I1K         1 TEMP              0 ****  ****    0 ROOT
