@<TRIPOS>MOLECULE
I1L
   17    17     1     0     0
SMALL
No Charge or Current Charge


@<TRIPOS>ATOM
      1 NAD         -1.9450     0.2390    -1.0090 nc         1 I1L      -0.481800
      2 NAB         -2.8040    -0.3230    -0.1030 na         1 I1L       0.133600
      3 NAA         -2.3160    -0.3460     1.1710 nc         1 I1L      -0.132800
      4 NAC         -1.1380     0.2020     1.0930 nd         1 I1L      -0.374000
      5 CAE         -0.9320     0.5400    -0.2250 cd         1 I1L       0.465300
      6 CAF          0.3060     1.2090    -0.7200 c3         1 I1L      -0.145700
      7 CAG          1.4730     0.2450    -0.6880 c          1 I1L       0.600100
      8 OAI          1.6220    -0.6370    -1.5220 o          1 I1L      -0.500100
      9 N            2.3820     0.4170     0.3580 ns         1 I1L      -0.419300
     10 NAJ          3.5640    -0.5290     0.4310 nz         1 I1L      -0.756200
     11 HAB         -3.7240    -0.6900    -0.3430 hn         1 I1L       0.427000
     12 HAF          0.1530     1.5360    -1.7530 hc         1 I1L       0.107700
     13 HAG          0.5120     2.0750    -0.0830 hc         1 I1L       0.107700
     14 H            2.2200     1.1610     1.0450 hn         1 I1L       0.378500
     15 HAJ          3.5990    -1.1880     1.2300 hn         1 I1L       0.530000
     16 HAK          3.5630    -1.2200    -0.3430 hn         1 I1L       0.530000
     17 HAL          4.5080    -0.1250     0.2820 hn         1 I1L       0.530000
@<TRIPOS>BOND
     1     1     2 1   
     2     1     5 2   
     3     2     3 1   
     4     2    11 1   
     5     3     4 2   
     6     4     5 1   
     7     5     6 1   
     8     6     7 1   
     9     6    12 1   
    10     6    13 1   
    11     7     8 2   
    12     7     9 1   
    13     9    10 1   
    14     9    14 1   
    15    10    15 1   
    16    10    16 1   
    17    10    17 1   
@<TRIPOS>SUBSTRUCTURE
     1 I1L         1 TEMP              0 ****  ****    0 ROOT
