@<TRIPOS>MOLECULE
I1L
   17    17     1     0     0
SMALL
bcc


@<TRIPOS>ATOM
      1 NAD         -1.8330     0.1930    -1.0760 nc         1 I1L      -0.481800
      2 NAB         -2.8770    -0.2790    -0.4520 na         1 I1L       0.183900
      3 NAA         -2.7730    -0.2850     0.8410 nc         1 I1L      -0.132800
      4 NAC         -1.6070     0.2040     1.1090 nd         1 I1L      -0.374000
      5 CAE         -1.0360     0.4930    -0.0720 cd         1 I1L       0.465300
      6 CAF          0.3180     1.0730    -0.2220 c3         1 I1L      -0.145700
      7 CAG          1.3810     0.0020    -0.1880 c          1 I1L       0.667100
      8 OAI          1.1740    -1.1820    -0.3120 o          1 I1L      -0.500100
      9 N            2.6440     0.4980    -0.0500 ns         1 I1L      -0.486300
     10 NAJ          3.6870    -0.4170     0.0930 nz         1 I1L      -0.590600
     11 HAB         -3.7030    -0.6140    -0.9310 hn         1 I1L       0.376700
     12 HAF          0.3970     1.5970    -1.1770 hc         1 I1L       0.107700
     13 HAG          0.5000     1.8170     0.5560 hc         1 I1L       0.107700
     14 H            2.8380     1.4040     0.3470 hn         1 I1L       0.378500
     15 HAJ          3.6480    -0.9480     0.9690 hn         1 I1L       0.474800
     16 HAK          3.7070    -1.0760    -0.6890 hn         1 I1L       0.474800
     17 HAL          4.5770     0.0860     0.0750 hn         1 I1L       0.474800
@<TRIPOS>BOND
     1     1     2 1   
     2     1     5 2   
     3     2     3 1   
     4     2    11 1   
     5     3     4 2   
     6     4     5 1   
     7     5     6 1   
     8     6     7 1   
     9     6    12 1   
    10     6    13 1   
    11     7     8 2   
    12     7     9 1   
    13     9    10 1   
    14     9    14 1   
    15    10    15 1   
    16    10    16 1   
    17    10    17 1   
@<TRIPOS>SUBSTRUCTURE
     1 I1L         1 TEMP              0 ****  ****    0 ROOT
