@<TRIPOS>MOLECULE
I1M
   31    32     1     0     0
SMALL
abcg2


@<TRIPOS>ATOM
      1 N1          -2.8400    -5.0190   -38.2870 n1         1 I1M      -0.464000
      2 C4          -4.8490    -8.1410   -38.4590 ca         1 I1M      -0.132300
      3 C5          -3.4930    -8.3140   -39.0780 c3         1 I1M      -0.012100
      4 C6          -3.0470    -7.0710   -39.8860 c3         1 I1M       0.052700
      5 C7          -2.9210    -5.9180   -39.0000 c1         1 I1M       0.309900
      6 C8          -1.7680    -7.3310   -40.6450 ca         1 I1M      -0.118300
      7 C10          0.6570    -7.4160   -40.7320 ca         1 I1M      -0.204000
      8 C13         -1.7830    -7.8620   -41.9330 ca         1 I1M       0.165000
      9 C15         -6.2580    -7.6360   -36.5550 ca         1 I1M      -0.173500
     10 O1          -8.6450    -7.5960   -36.8630 oh         1 I1M      -0.533100
     11 C1          -7.3970    -7.7630   -37.3450 ca         1 I1M       0.144100
     12 C2          -7.2600    -8.0800   -38.6960 ca         1 I1M      -0.173500
     13 C3          -6.0000    -8.2640   -39.2360 ca         1 I1M      -0.060500
     14 C9          -0.5200    -7.1270   -40.0660 ca         1 I1M      -0.047000
     15 C11          0.6110    -7.9330   -42.0240 ca         1 I1M       0.157100
     16 O2           1.7090    -8.2320   -42.7360 oh         1 I1M      -0.525100
     17 C12         -0.6230    -8.1600   -42.6260 ca         1 I1M      -0.143000
     18 CL1         -3.2930    -8.1860   -42.7250 cl         1 I1M      -0.198000
     19 C14         -5.0020    -7.8220   -37.1150 ca         1 I1M      -0.060500
     20 H1          -3.4970    -9.1570   -39.7720 hc         1 I1M       0.059200
     21 H2          -2.7380    -8.5290   -38.3200 hc         1 I1M       0.059200
     22 H3          -3.8450    -6.8170   -40.5900 hc         1 I1M       0.094700
     23 H4           1.6090    -7.2380   -40.2450 ha         1 I1M       0.122000
     24 H5          -6.3480    -7.3930   -35.5020 ha         1 I1M       0.122500
     25 H6          -8.6170    -7.3670   -35.9270 ho         1 I1M       0.466000
     26 H7          -8.1420    -8.1840   -39.3160 ha         1 I1M       0.122500
     27 H8          -5.9090    -8.5120   -40.2880 ha         1 I1M       0.114500
     28 H9          -0.4590    -6.7270   -39.0610 ha         1 I1M       0.125000
     29 H10          2.5060    -8.0340   -42.2300 ho         1 I1M       0.471000
     30 H11         -0.6700    -8.5660   -43.6280 ha         1 I1M       0.147000
     31 H12         -4.1250    -7.7220   -36.4850 ha         1 I1M       0.114500
@<TRIPOS>BOND
     1     1     5 3   
     2     2     3 1   
     3     2    13 ar  
     4     2    19 ar  
     5     3     4 1   
     6     3    20 1   
     7     3    21 1   
     8     4     5 1   
     9     4     6 1   
    10     4    22 1   
    11     6     8 ar  
    12     6    14 ar  
    13     7    14 ar  
    14     7    15 ar  
    15     7    23 1   
    16     8    17 ar  
    17     8    18 1   
    18     9    11 ar  
    19     9    19 ar  
    20     9    24 1   
    21    10    11 1   
    22    10    25 1   
    23    11    12 ar  
    24    12    13 ar  
    25    12    26 1   
    26    13    27 1   
    27    14    28 1   
    28    15    16 1   
    29    15    17 ar  
    30    16    29 1   
    31    17    30 1   
    32    19    31 1   
@<TRIPOS>SUBSTRUCTURE
     1 I1M         1 TEMP              0 ****  ****    0 ROOT
