@<TRIPOS>MOLECULE
I1M
   31    32     1     0     0
SMALL
No Charge or Current Charge


@<TRIPOS>ATOM
      1 N1          -3.1170    -4.6560   -39.1380 n1         1 I1M      -0.464000
      2 C4          -4.8000    -8.0690   -38.2660 ca         1 I1M      -0.132300
      3 C5          -3.3720    -8.1590   -38.8000 c3         1 I1M      -0.012100
      4 C6          -3.0970    -7.1630   -39.9620 c3         1 I1M       0.052700
      5 C7          -3.1230    -5.7660   -39.4970 c1         1 I1M       0.309900
      6 C8          -1.7830    -7.4310   -40.7260 ca         1 I1M      -0.118300
      7 C10          0.5640    -8.1410   -40.7400 ca         1 I1M      -0.204000
      8 C13         -1.6830    -7.1840   -42.1200 ca         1 I1M       0.165000
      9 C15         -6.3920    -7.2800   -36.5910 ca         1 I1M      -0.173500
     10 O1          -8.7180    -7.8230   -36.8270 oh         1 I1M      -0.533100
     11 C1          -7.4390    -7.9000   -37.2910 ca         1 I1M       0.144100
     12 C2          -7.1710    -8.6040   -38.4740 ca         1 I1M      -0.173500
     13 C3          -5.8560    -8.6900   -38.9620 ca         1 I1M      -0.060500
     14 C9          -0.6340    -7.9030   -40.0460 ca         1 I1M      -0.047000
     15 C11          0.6390    -7.9060   -42.1180 ca         1 I1M       0.157100
     16 O2           1.8000    -8.1350   -42.7930 oh         1 I1M      -0.525100
     17 C12         -0.4810    -7.4250   -42.8040 ca         1 I1M      -0.143000
     18 Cl1         -3.0410    -6.5520   -43.0560 cl         1 I1M      -0.198000
     19 C14         -5.0750    -7.3640   -37.0770 ca         1 I1M      -0.060500
     20 H1          -3.1870    -9.1790   -39.1610 hc         1 I1M       0.059200
     21 H2          -2.6600    -7.9930   -37.9830 hc         1 I1M       0.059200
     22 H3          -3.9430    -7.2760   -40.6480 hc         1 I1M       0.094700
     23 H4           1.4320    -8.5070   -40.1950 ha         1 I1M       0.122000
     24 H5          -6.5890    -6.7320   -35.6730 ha         1 I1M       0.122500
     25 H6          -8.7160    -7.2980   -35.9980 ho         1 I1M       0.466000
     26 H7          -7.9830    -9.0850   -39.0140 ha         1 I1M       0.122500
     27 H8          -5.6590    -9.2390   -39.8810 ha         1 I1M       0.114500
     28 H9          -0.6530    -8.0830   -38.9740 ha         1 I1M       0.125000
     29 H10          2.4690    -8.4640   -42.1550 ho         1 I1M       0.471000
     30 H11         -0.4190    -7.2330   -43.8710 ha         1 I1M       0.147000
     31 H12         -4.2690    -6.8780   -36.5290 ha         1 I1M       0.114500
@<TRIPOS>BOND
     1     1     5 3   
     2     2     3 1   
     3     2    13 ar  
     4     2    19 ar  
     5     3     4 1   
     6     3    20 1   
     7     3    21 1   
     8     4     5 1   
     9     4     6 1   
    10     4    22 1   
    11     6     8 ar  
    12     6    14 ar  
    13     7    14 ar  
    14     7    15 ar  
    15     7    23 1   
    16     8    17 ar  
    17     8    18 1   
    18     9    11 ar  
    19     9    19 ar  
    20     9    24 1   
    21    10    11 1   
    22    10    25 1   
    23    11    12 ar  
    24    12    13 ar  
    25    12    26 1   
    26    13    27 1   
    27    14    28 1   
    28    15    16 1   
    29    15    17 ar  
    30    16    29 1   
    31    17    30 1   
    32    19    31 1   
@<TRIPOS>SUBSTRUCTURE
     1 I1M         1 TEMP              0 ****  ****    0 ROOT
