@<TRIPOS>MOLECULE
I1N
   22    22     1     0     0
SMALL
No Charge or Current Charge


@<TRIPOS>ATOM
      1 C1           2.0220    -0.1780    -0.6600 c          1 I1N       0.568100
      2 C2           2.9300    -0.2770    -1.9390 c6         1 I1N       0.079800
      3 C3           2.2560    -0.9770    -3.1560 c6         1 I1N       0.131300
      4 C4           0.7760    -0.5040    -3.3720 c6         1 I1N       0.092300
      5 C5          -0.0900    -0.6330    -2.0710 c6         1 I1N       0.131300
      6 C6           0.5320     0.2100    -0.9230 c6         1 I1N       0.079800
      7 O1           2.5260     0.0960     0.4270 o          1 I1N      -0.450100
      8 O2           4.1900    -0.9510    -1.6760 oh         1 I1N      -0.685000
      9 O3           2.3610    -2.4060    -2.9790 oh         1 I1N      -0.681000
     10 O4           0.7710     0.8740    -3.8070 oh         1 I1N      -0.730000
     11 O5          -0.2360    -1.9980    -1.6460 oh         1 I1N      -0.681000
     12 O6           0.4240     1.6190    -1.2580 oh         1 I1N      -0.685000
     13 H2           3.1150     0.7700    -2.2220 h1         1 I1N       0.082200
     14 H3           2.8260    -0.6960    -4.0550 h1         1 I1N       0.042700
     15 H4           0.3170    -1.1280    -4.1540 h1         1 I1N       0.036700
     16 H5          -1.0890    -0.2250    -2.2860 h1         1 I1N       0.042700
     17 H6          -0.0110    -0.0050     0.0090 h1         1 I1N       0.082200
     18 HO2          4.0140    -1.8810    -1.9690 ho         1 I1N       0.511500
     19 HO3          1.9520    -2.8310    -3.7690 ho         1 I1N       0.502500
     20 HO4          0.8980     0.8740    -4.7880 ho         1 I1N       0.517000
     21 HO5         -0.8050    -2.4530    -2.3100 ho         1 I1N       0.502500
     22 HO6          0.5250     1.6390    -2.2540 ho         1 I1N       0.511500
@<TRIPOS>BOND
     1     1     2 1   
     2     1     6 1   
     3     1     7 2   
     4     2     3 1   
     5     2     8 1   
     6     2    13 1   
     7     3     4 1   
     8     3     9 1   
     9     3    14 1   
    10     4     5 1   
    11     4    10 1   
    12     4    15 1   
    13     5     6 1   
    14     5    11 1   
    15     5    16 1   
    16     6    12 1   
    17     6    17 1   
    18     8    18 1   
    19     9    19 1   
    20    10    20 1   
    21    11    21 1   
    22    12    22 1   
@<TRIPOS>SUBSTRUCTURE
     1 I1N         1 TEMP              0 ****  ****    0 ROOT
