@<TRIPOS>MOLECULE
I1N
   22    22     1     0     0
SMALL
bcc


@<TRIPOS>ATOM
      1 C1           1.9590    -0.3320    -0.7650 c          1 I1N       0.568100
      2 C2           2.8350    -0.3210    -1.9990 c6         1 I1N       0.056600
      3 C3           2.1360    -1.1270    -3.1060 c6         1 I1N       0.108100
      4 C4           0.7080    -0.6110    -3.3560 c6         1 I1N       0.069100
      5 C5          -0.1460    -0.5250    -2.0810 c6         1 I1N       0.108100
      6 C6           0.5730     0.2670    -0.9830 c6         1 I1N       0.056600
      7 O1           2.3290    -0.7610     0.2980 o          1 I1N      -0.450100
      8 O2           4.0950    -0.8200    -1.6730 oh         1 I1N      -0.562800
      9 O3           2.1480    -2.4720    -2.7160 oh         1 I1N      -0.558800
     10 O4           0.7330     0.7010    -3.8860 oh         1 I1N      -0.607800
     11 O5          -0.4120    -1.7830    -1.5250 oh         1 I1N      -0.558800
     12 O6           0.6840     1.6410    -1.2670 oh         1 I1N      -0.562800
     13 H2           2.8980     0.7190    -2.3470 h1         1 I1N       0.082200
     14 H3           2.7110    -0.9860    -4.0370 h1         1 I1N       0.042700
     15 H4           0.2160    -1.2960    -4.0630 h1         1 I1N       0.036700
     16 H5          -1.0750     0.0060    -2.3390 h1         1 I1N       0.042700
     17 H6           0.0050     0.1670    -0.0530 h1         1 I1N       0.082200
     18 HO2          4.6900    -0.6350    -2.4060 ho         1 I1N       0.412500
     19 HO3          1.8180    -3.0080    -3.4440 ho         1 I1N       0.403500
     20 HO4          1.2780     0.7210    -4.6810 ho         1 I1N       0.418000
     21 HO5         -0.7670    -2.3620    -2.2060 ho         1 I1N       0.403500
     22 HO6          0.7870     1.7550    -2.2220 ho         1 I1N       0.412500
@<TRIPOS>BOND
     1     1     2 1   
     2     1     6 1   
     3     1     7 2   
     4     2     3 1   
     5     2     8 1   
     6     2    13 1   
     7     3     4 1   
     8     3     9 1   
     9     3    14 1   
    10     4     5 1   
    11     4    10 1   
    12     4    15 1   
    13     5     6 1   
    14     5    11 1   
    15     5    16 1   
    16     6    12 1   
    17     6    17 1   
    18     8    18 1   
    19     9    19 1   
    20    10    20 1   
    21    11    21 1   
    22    12    22 1   
@<TRIPOS>SUBSTRUCTURE
     1 I1N         1 TEMP              0 ****  ****    0 ROOT
