@<TRIPOS>MOLECULE
I1P
   56    59     1     0     0
SMALL
bcc


@<TRIPOS>ATOM
      1 C22         -1.2590     1.2120     1.2140 ca         1 I1P      -0.203000
      2 C1           1.3190    -0.2650    -9.2560 cc         1 I1P      -0.248300
      3 C2           1.1850     1.0100    -8.7960 cd         1 I1P      -0.034000
      4 C7           0.2980     0.4610    -5.4210 cd         1 I1P      -0.238900
      5 C6           1.0930    -1.3400    -8.3630 cc         1 I1P       0.379200
      6 C3           0.8270     1.1820    -7.4500 cd         1 I1P      -0.062300
      7 N5           0.7600    -1.2010    -7.1150 nd         1 I1P      -0.473800
      8 C11         -0.0530    -1.7610    -4.2700 ca         1 I1P      -0.391600
      9 C10         -0.0060    -0.3640    -4.2690 ca         1 I1P       0.597100
     10 C9           0.3100     1.8440    -5.5050 cc         1 I1P       0.070600
     11 C17         -1.1150     0.1250     0.3390 ca         1 I1P       0.242600
     12 C14         -0.5480    -0.3600    -2.0570 ca         1 I1P       0.912900
     13 C13         -0.3730    -2.3570    -3.0670 ca         1 I1P       0.472200
     14 N15         -0.2540     0.3230    -3.1570 nb         1 I1P      -0.780000
     15 C18         -1.3230    -1.1680     0.8370 ca         1 I1P      -0.203000
     16 C19         -1.6570    -1.3530     2.1660 ca         1 I1P       0.000000
     17 C20         -1.7920    -0.2650     3.0190 ca         1 I1P      -0.358500
     18 N4           0.6330     0.0480    -6.6860 na         1 I1P       0.207200
     19 N8           0.6300     2.2770    -6.7320 nc         1 I1P      -0.270600
     20 N13         -0.6240    -1.6810    -1.9540 nb         1 I1P      -0.749000
     21 N16         -0.7800     0.4300    -0.9630 nu         1 I1P      -0.735300
     22 C21         -1.5920     1.0240     2.5370 ca         1 I1P       0.000000
     23 S23         -2.1530    -0.5250     4.7250 sy         1 I1P       1.294200
     24 N24         -0.7200    -0.8020     5.4930 n7         1 I1P      -0.802100
     25 C25          0.3070     0.2360     5.4590 c3         1 I1P       0.194800
     26 C26          1.4680    -0.1640     6.3550 c3         1 I1P      -0.082400
     27 C27          2.5590     0.8990     6.3240 c3         1 I1P       0.165800
     28 N28          3.7730     0.5000     7.0090 n3         1 I1P      -0.714600
     29 C29          4.8540     1.4150     6.7110 c3         1 I1P       0.149600
     30 C30          3.5910     0.3720     8.4390 c3         1 I1P       0.149600
     31 O31         -2.9160    -1.7570     4.8560 o          1 I1P      -0.606800
     32 O32         -2.6830     0.7180     5.2620 o          1 I1P      -0.606800
     33 H22         -1.1080     2.2200     0.8460 ha         1 I1P       0.154000
     34 H2           1.3420     1.8780    -9.4200 ha         1 I1P       0.171000
     35 H6           1.1930    -2.3630    -8.6980 h4         1 I1P       0.042100
     36 H11          0.1450    -2.3510    -5.1490 ha         1 I1P       0.176000
     37 H9           0.0920     2.5270    -4.6990 h4         1 I1P       0.196000
     38 H13         -0.4310    -3.4370    -2.9950 h4         1 I1P       0.027100
     39 H18         -1.2270    -2.0240     0.1900 ha         1 I1P       0.154000
     40 H19         -1.8190    -2.3610     2.5240 ha         1 I1P       0.152000
     41 H16         -0.6740     1.4130    -1.1630 hn         1 I1P       0.457800
     42 H21         -1.7000     1.8850     3.1820 ha         1 I1P       0.152000
     43 H24         -0.3610    -1.7270     5.2740 hn         1 I1P       0.420800
     44 H251        -0.1320     1.1680     5.8170 h1         1 I1P       0.050200
     45 H252         0.6690     0.4120     4.4390 h1         1 I1P       0.050200
     46 H261         1.8890    -1.1150     6.0150 hc         1 I1P       0.059200
     47 H262         1.0930    -0.3180     7.3690 hc         1 I1P       0.059200
     48 H271         2.1580     1.8470     6.7240 h1         1 I1P       0.029700
     49 H272         2.8200     1.0940     5.2790 h1         1 I1P       0.029700
     50 H291         5.7750     1.0710     7.1850 h1         1 I1P       0.031533
     51 H292         5.0280     1.4540     5.6350 h1         1 I1P       0.031533
     52 H293         4.6650     2.4430     7.0580 h1         1 I1P       0.031533
     53 H301         2.8500    -0.3920     8.6740 h1         1 I1P       0.031533
     54 H302         4.5290     0.0660     8.9040 h1         1 I1P       0.031533
     55 H303         3.2710     1.3110     8.9190 h1         1 I1P       0.031533
     56 H1           1.5920    -0.4730   -10.2800 ha         1 I1P       0.158000
@<TRIPOS>BOND
     1     1    11 ar  
     2     1    22 ar  
     3     1    33 1   
     4     2     3 2   
     5     2     5 1   
     6     2    56 1   
     7     3     6 1   
     8     3    34 1   
     9     4     9 1   
    10     4    10 2   
    11     4    18 1   
    12     5     7 2   
    13     5    35 1   
    14     6    18 1   
    15     6    19 2   
    16     7    18 1   
    17     8     9 ar  
    18     8    13 ar  
    19     8    36 1   
    20     9    14 ar  
    21    10    19 1   
    22    10    37 1   
    23    11    15 ar  
    24    11    21 1   
    25    12    14 ar  
    26    12    20 ar  
    27    12    21 1   
    28    13    20 ar  
    29    13    38 1   
    30    15    16 ar  
    31    15    39 1   
    32    16    17 ar  
    33    16    40 1   
    34    17    22 ar  
    35    17    23 1   
    36    21    41 1   
    37    22    42 1   
    38    23    24 1   
    39    23    31 2   
    40    23    32 2   
    41    24    25 1   
    42    24    43 1   
    43    25    26 1   
    44    25    44 1   
    45    25    45 1   
    46    26    27 1   
    47    26    46 1   
    48    26    47 1   
    49    27    28 1   
    50    27    48 1   
    51    27    49 1   
    52    28    29 1   
    53    28    30 1   
    54    29    50 1   
    55    29    51 1   
    56    29    52 1   
    57    30    53 1   
    58    30    54 1   
    59    30    55 1   
@<TRIPOS>SUBSTRUCTURE
     1 I1P         1 TEMP              0 ****  ****    0 ROOT
