@<TRIPOS>MOLECULE
I1P
   56    59     1     0     0
SMALL
No Charge or Current Charge


@<TRIPOS>ATOM
      1 C22         -1.9300     0.9890     1.5160 ca         1 I1P      -0.185000
      2 C1           2.3230     0.1730    -8.5610 cc         1 I1P      -0.165000
      3 C2           1.9980     1.4530    -8.1810 cd         1 I1P      -0.016000
      4 C7           0.0850     0.7550    -5.1960 cd         1 I1P      -0.238900
      5 C6           1.8850    -0.9400    -7.7570 cc         1 I1P       0.313900
      6 C3           1.2190     1.5210    -6.9920 cd         1 I1P      -0.113000
      7 N5           1.1550    -0.9010    -6.6360 nd         1 I1P      -0.473800
      8 C11         -0.7920    -1.4370    -4.2670 ca         1 I1P      -0.243000
      9 C10         -0.4570    -0.0780    -4.1080 ca         1 I1P       0.268800
     10 C9           0.1280     2.1380    -5.2530 cc         1 I1P       0.020600
     11 C17         -1.3750     0.0380     0.6470 ca         1 I1P       0.381000
     12 C14         -0.9810    -0.2480    -1.8770 ca         1 I1P       0.386900
     13 C13         -1.2480    -2.1370    -3.1400 ca         1 I1P       0.143900
     14 N15         -0.5470     0.5100    -2.8970 nb         1 I1P      -0.254000
     15 C18         -1.0860    -1.2500     1.1320 ca         1 I1P      -0.185000
     16 C19         -1.3720    -1.5930     2.4640 ca         1 I1P       0.018000
     17 C20         -1.9460    -0.6370     3.3240 ca         1 I1P      -0.358500
     18 N4           0.8110     0.3980    -6.3100 na         1 I1P       0.257900
     19 N8           0.8010     2.6030    -6.3650 nc         1 I1P      -0.270600
     20 N13         -1.3500    -1.5410    -1.9380 nb         1 I1P      -0.223000
     21 N16         -1.0900     0.4230    -0.6660 nu         1 I1P      -0.928900
     22 C21         -2.2220     0.6580     2.8490 ca         1 I1P       0.018000
     23 S23         -2.3070    -1.0540     5.0360 sy         1 I1P       1.152600
     24 N24         -1.0400    -0.3170     5.8310 n7         1 I1P      -0.857300
     25 C25          0.3150    -0.4780     5.2770 c3         1 I1P       0.194800
     26 C26          1.3460     0.1700     6.2190 c3         1 I1P      -0.082400
     27 C27          2.7880     0.0580     5.6750 c3         1 I1P       0.165800
     28 N28          3.8460     0.5270     6.6060 n3         1 I1P      -0.714600
     29 C29          5.2020     0.1740     6.1290 c3         1 I1P       0.149600
     30 C30          3.7440     1.9650     6.9570 c3         1 I1P       0.149600
     31 O31         -2.1360    -2.4910     5.2570 o          1 I1P      -0.536000
     32 O32         -3.5030    -0.3230     5.4590 o          1 I1P      -0.536000
     33 H22         -2.1470     1.9910     1.1570 ha         1 I1P       0.136000
     34 H2           2.3190     2.3330    -8.7320 ha         1 I1P       0.153000
     35 H6           2.1510    -1.9480    -8.0430 h4         1 I1P       0.042100
     36 H11         -0.7280    -1.9340    -5.2280 ha         1 I1P       0.158000
     37 H9          -0.2910     2.8470    -4.5430 h4         1 I1P       0.246000
     38 H13         -1.5380    -3.1850    -3.1990 h4         1 I1P       0.027100
     39 H18         -0.6190    -1.9880     0.4910 ha         1 I1P       0.136000
     40 H19         -1.1380    -2.5950     2.8200 ha         1 I1P       0.134000
     41 H16         -1.0150     1.4320    -0.7800 hn         1 I1P       0.513000
     42 H21         -2.6550     1.4100     3.5080 ha         1 I1P       0.134000
     43 H24         -1.0910    -0.7870     6.7320 hn         1 I1P       0.476000
     44 H251         0.3950     0.0050     4.2930 h1         1 I1P       0.050200
     45 H252         0.5630    -1.5410     5.1510 h1         1 I1P       0.050200
     46 H261         1.2950    -0.3130     7.2020 hc         1 I1P       0.059200
     47 H262         1.0810     1.2240     6.3550 hc         1 I1P       0.059200
     48 H271         2.8510     0.6120     4.7280 h1         1 I1P       0.029700
     49 H272         2.9680    -1.0000     5.4370 h1         1 I1P       0.029700
     50 H291         5.9610     0.4550     6.8710 h1         1 I1P       0.031533
     51 H292         5.2840    -0.9080     5.9580 h1         1 I1P       0.031533
     52 H293         5.4330     0.6900     5.1880 h1         1 I1P       0.031533
     53 H301         2.7950     2.1860     7.4620 h1         1 I1P       0.031533
     54 H302         4.5530     2.2540     7.6410 h1         1 I1P       0.031533
     55 H303         3.8130     2.5930     6.0590 h1         1 I1P       0.031533
     56 H1           2.9160    -0.0200    -9.4480 ha         1 I1P       0.140000
@<TRIPOS>BOND
     1     1    11 ar  
     2     1    22 ar  
     3     1    33 1   
     4     2     3 2   
     5     2     5 1   
     6     2    56 1   
     7     3     6 1   
     8     3    34 1   
     9     4     9 1   
    10     4    10 2   
    11     4    18 1   
    12     5     7 2   
    13     5    35 1   
    14     6    18 1   
    15     6    19 2   
    16     7    18 1   
    17     8     9 ar  
    18     8    13 ar  
    19     8    36 1   
    20     9    14 ar  
    21    10    19 1   
    22    10    37 1   
    23    11    15 ar  
    24    11    21 1   
    25    12    14 ar  
    26    12    20 ar  
    27    12    21 1   
    28    13    20 ar  
    29    13    38 1   
    30    15    16 ar  
    31    15    39 1   
    32    16    17 ar  
    33    16    40 1   
    34    17    22 ar  
    35    17    23 1   
    36    21    41 1   
    37    22    42 1   
    38    23    24 1   
    39    23    31 2   
    40    23    32 2   
    41    24    25 1   
    42    24    43 1   
    43    25    26 1   
    44    25    44 1   
    45    25    45 1   
    46    26    27 1   
    47    26    46 1   
    48    26    47 1   
    49    27    28 1   
    50    27    48 1   
    51    27    49 1   
    52    28    29 1   
    53    28    30 1   
    54    29    50 1   
    55    29    51 1   
    56    29    52 1   
    57    30    53 1   
    58    30    54 1   
    59    30    55 1   
@<TRIPOS>SUBSTRUCTURE
     1 I1P         1 TEMP              0 ****  ****    0 ROOT
