@<TRIPOS>MOLECULE
I1Q
   20    22     1     0     0
SMALL
abcg2


@<TRIPOS>ATOM
      1 C4           0.9560   -10.6690    17.6750 ca         1 I1Q      -0.091000
      2 C5           2.1880   -10.0460    17.7210 ca         1 I1Q      -0.007200
      3 C6           3.1060   -10.3430    18.7280 ca         1 I1Q      -0.165000
      4 C7           2.8030   -11.2720    19.7080 ca         1 I1Q      -0.063000
      5 C8           3.9560    -8.6500    17.1640 cc         1 I1Q       0.437800
      6 C9           2.3640    -8.3840    15.7490 cc         1 I1Q       0.399400
      7 N1           4.3630    -7.7570    16.3150 nd         1 I1Q      -0.319000
      8 N2           3.3460    -7.5950    15.4220 nd         1 I1Q      -0.348000
      9 C3           0.6600   -11.5980    18.6600 ca         1 I1Q      -0.090000
     10 N3           2.7060    -9.0850    16.8610 na         1 I1Q      -0.260800
     11 C2           1.5660   -11.9120    19.6780 ca         1 I1Q      -0.069300
     12 S1           4.6000    -9.4200    18.5790 ss         1 I1Q       0.029700
     13 H1           0.2410   -10.4380    16.8960 ha         1 I1Q       0.129000
     14 H2           3.5160   -11.4970    20.4910 ha         1 I1Q       0.130000
     15 H3           1.4210    -8.4810    15.2360 h5         1 I1Q       0.071100
     16 H4          -0.3030   -12.0920    18.6400 ha         1 I1Q       0.123000
     17 H5           1.5280   -13.9400    20.3790 hc         1 I1Q       0.048033
     18 H6           1.7270   -12.7480    21.6560 hc         1 I1Q       0.048033
     19 H7           0.1510   -12.9790    20.8980 hc         1 I1Q       0.048033
     20 C1           1.2230   -12.9450    20.7110 c3         1 I1Q      -0.050800
@<TRIPOS>BOND
     1     1     2 ar  
     2     1     9 ar  
     3     1    13 1   
     4     2     3 ar  
     5     2    10 1   
     6     3     4 ar  
     7     3    12 1   
     8     4    11 ar  
     9     4    14 1   
    10     5     7 2   
    11     5    10 1   
    12     5    12 1   
    13     6     8 2   
    14     6    10 1   
    15     6    15 1   
    16     7     8 1   
    17     9    11 ar  
    18     9    16 1   
    19    11    20 1   
    20    17    20 1   
    21    18    20 1   
    22    19    20 1   
@<TRIPOS>SUBSTRUCTURE
     1 I1Q         1 TEMP              0 ****  ****    0 ROOT
