@<TRIPOS>MOLECULE
I1Q
   20    22     1     0     0
SMALL
No Charge or Current Charge


@<TRIPOS>ATOM
      1 C4           1.0620   -10.8000    17.5060 ca         1 I1Q      -0.091000
      2 C5           2.3220   -10.1890    17.5580 ca         1 I1Q      -0.007200
      3 C6           3.1960   -10.4140    18.6170 ca         1 I1Q      -0.165000
      4 C7           2.8340   -11.2640    19.6730 ca         1 I1Q      -0.063000
      5 C8           4.0880    -8.8550    16.9810 cc         1 I1Q       0.437800
      6 C9           2.2400    -8.3450    15.9340 cc         1 I1Q       0.399400
      7 N1           4.2560    -7.6320    16.5120 nd         1 I1Q      -0.319000
      8 N2           3.1090    -7.3420    15.7780 nd         1 I1Q      -0.348000
      9 C3           0.6900   -11.6590    18.5600 ca         1 I1Q      -0.090000
     10 N3           2.8760    -9.3380    16.6300 na         1 I1Q      -0.260800
     11 C2           1.5700   -11.8930    19.6440 ca         1 I1Q      -0.069300
     12 S1           4.7400    -9.4960    18.4970 ss         1 I1Q       0.029700
     13 H1           0.3880   -10.6260    16.6700 ha         1 I1Q       0.129000
     14 H2           3.5190   -11.4330    20.5010 ha         1 I1Q       0.130000
     15 H3           1.2140    -8.3980    15.5920 h5         1 I1Q       0.071100
     16 H4          -0.2830   -12.1450    18.5350 ha         1 I1Q       0.123000
     17 H5           1.4380   -13.8580    20.5510 hc         1 I1Q       0.048033
     18 H6           1.6330   -12.5410    21.7200 hc         1 I1Q       0.048033
     19 H7           0.0700   -12.7980    20.9340 hc         1 I1Q       0.048033
     20 C1           1.1550   -12.8230    20.7740 c3         1 I1Q      -0.050800
@<TRIPOS>BOND
     1     1     2 ar  
     2     1     9 ar  
     3     1    13 1   
     4     2     3 ar  
     5     2    10 1   
     6     3     4 ar  
     7     3    12 1   
     8     4    11 ar  
     9     4    14 1   
    10     5     7 2   
    11     5    10 1   
    12     5    12 1   
    13     6     8 2   
    14     6    10 1   
    15     6    15 1   
    16     7     8 1   
    17     9    11 ar  
    18     9    16 1   
    19    11    20 1   
    20    17    20 1   
    21    18    20 1   
    22    19    20 1   
@<TRIPOS>SUBSTRUCTURE
     1 I1Q         1 TEMP              0 ****  ****    0 ROOT
