@<TRIPOS>MOLECULE
I1R
   65    69     1     0     0
SMALL
abcg2


@<TRIPOS>ATOM
      1 C7          -1.1330    24.3430     8.9400 c3         1 I1R       0.218100
      2 C6           0.2410    24.7440     9.4130 ca         1 I1R      -0.061300
      3 C5           0.9000    25.7980     8.7870 ca         1 I1R      -0.123000
      4 C4           2.1660    26.1960     9.1900 ca         1 I1R      -0.092000
      5 C3           2.7960    25.5340    10.2300 ca         1 I1R      -0.145000
      6 C2           2.1270    24.4900    10.8400 ca         1 I1R       0.160000
      7 C10         -0.3720    21.5140     6.5880 c6         1 I1R      -0.078400
      8 C11         -1.7460    20.8600     6.5460 c6         1 I1R      -0.074400
      9 C12         -2.4650    20.9960     7.8880 c6         1 I1R      -0.050700
     10 C13         -1.8080    20.1910     9.0230 c3         1 I1R      -0.113700
     11 C14         -1.5240    18.7840     8.6710 cc         1 I1R       0.495300
     12 C16         -0.7040    16.9380     8.1710 cd         1 I1R       0.622500
     13 C17          0.2990    15.9160     7.8970 ca         1 I1R      -0.173500
     14 C18          1.6480    16.2650     7.8540 ca         1 I1R      -0.039500
     15 C19          2.6130    15.3070     7.6190 ca         1 I1R      -0.162000
     16 C20          2.2630    13.9690     7.4250 ca         1 I1R      -0.001000
     17 C22          3.2900    11.7150     7.3010 c          1 I1R       0.621700
     18 C23          4.6060    11.0530     7.0570 ca         1 I1R      -0.157600
     19 C24          5.5430    11.5390     6.1480 ca         1 I1R      -0.063500
     20 C25          6.7420    10.8740     5.9440 ca         1 I1R      -0.112000
     21 C26          7.0050     9.7200     6.6640 ca         1 I1R       0.139000
     22 C28          6.0830     9.2120     7.5670 ca         1 I1R      -0.112000
     23 C29          4.8820     9.8760     7.7490 ca         1 I1R      -0.063500
     24 C31          0.9110    13.6150     7.4500 ca         1 I1R      -0.162000
     25 C32         -0.0490    14.5840     7.6850 ca         1 I1R      -0.039500
     26 C35         -2.4960    22.4700     8.2850 c6         1 I1R       0.171800
     27 C36          0.8570    24.0670    10.4770 ca         1 I1R      -0.083300
     28 C37          0.2050    22.9330    11.2140 c3         1 I1R      -0.038800
     29 C9          -0.4720    22.9480     7.0880 c6         1 I1R       0.167800
     30 F1           2.7500    23.8510    11.8510 f          1 I1R      -0.183000
     31 N15         -0.3740    18.2230     8.4960 nd         1 I1R      -0.727000
     32 N21          3.3080    13.0720     7.2040 ns         1 I1R      -0.142000
     33 N33         -1.9870    16.7250     8.1430 nc         1 I1R      -0.382300
     34 N8          -1.1530    23.0110     8.3690 n3         1 I1R      -0.730600
     35 O30          2.3020    11.0650     7.5890 o          1 I1R      -0.567100
     36 O34         -2.5280    17.9390     8.4730 os         1 I1R      -0.092700
     37 CL27         8.5070     8.8970     6.4290 cl         1 I1R      -0.190000
     38 H1          -1.5060    25.1000     8.2300 h1         1 I1R       0.038200
     39 H2          -1.8250    24.3590     9.7880 h1         1 I1R       0.038200
     40 H3           0.4120    26.3120     7.9680 ha         1 I1R       0.113000
     41 H4           2.6650    27.0170     8.6920 ha         1 I1R       0.118000
     42 H5           3.7860    25.8170    10.5650 ha         1 I1R       0.131000
     43 H6           0.3020    20.9490     7.2370 hc         1 I1R       0.053200
     44 H7           0.0780    21.5120     5.5930 hc         1 I1R       0.053200
     45 H8          -2.3570    21.3560     5.7850 hc         1 I1R       0.045200
     46 H9          -1.6710    19.8150     6.2330 hc         1 I1R       0.045200
     47 H10         -3.4980    20.6560     7.7740 hc         1 I1R       0.059700
     48 H11         -0.8650    20.6520     9.3090 hc         1 I1R       0.084700
     49 H12         -2.4590    20.2170     9.9020 hc         1 I1R       0.084700
     50 H13          1.9500    17.2920     8.0090 ha         1 I1R       0.135000
     51 H14          3.6560    15.6010     7.5940 ha         1 I1R       0.131000
     52 H15          5.3460    12.4290     5.5620 ha         1 I1R       0.130000
     53 H16          7.4570    11.2540     5.2280 ha         1 I1R       0.135500
     54 H17          6.2960     8.3090     8.1230 ha         1 I1R       0.135500
     55 H18          4.1610     9.4760     8.4490 ha         1 I1R       0.130000
     56 H19          0.5960    12.5980     7.2910 ha         1 I1R       0.131000
     57 H20         -1.0890    14.2840     7.7060 ha         1 I1R       0.135000
     58 H21         -3.1180    23.0210     7.5570 h1         1 I1R       0.034200
     59 H22         -2.9790    22.5810     9.2600 h1         1 I1R       0.034200
     60 H23          0.5190    21.9670    10.8140 hc         1 I1R       0.048033
     61 H24          0.4580    22.9460    12.2730 hc         1 I1R       0.048033
     62 H25         -0.8780    22.9710    11.1330 hc         1 I1R       0.048033
     63 H26          0.5290    23.3700     7.1960 h1         1 I1R       0.034200
     64 H27         -0.9950    23.5640     6.3330 h1         1 I1R       0.034200
     65 H28          4.2140    13.5040     7.1060 hn         1 I1R       0.155000
@<TRIPOS>BOND
     1     1     2 1   
     2     1    34 1   
     3     1    38 1   
     4     1    39 1   
     5     2     3 ar  
     6     2    27 ar  
     7     3     4 ar  
     8     3    40 1   
     9     4     5 ar  
    10     4    41 1   
    11     5     6 ar  
    12     5    42 1   
    13     6    27 ar  
    14     6    30 1   
    15     7     8 1   
    16     7    29 1   
    17     7    43 1   
    18     7    44 1   
    19     8     9 1   
    20     8    45 1   
    21     8    46 1   
    22     9    10 1   
    23     9    26 1   
    24     9    47 1   
    25    10    11 1   
    26    10    48 1   
    27    10    49 1   
    28    11    31 2   
    29    11    36 1   
    30    12    13 1   
    31    12    31 1   
    32    12    33 2   
    33    13    14 ar  
    34    13    25 ar  
    35    14    15 ar  
    36    14    50 1   
    37    15    16 ar  
    38    15    51 1   
    39    16    24 ar  
    40    16    32 1   
    41    17    18 1   
    42    17    32 1   
    43    17    35 2   
    44    18    19 ar  
    45    18    23 ar  
    46    19    20 ar  
    47    19    52 1   
    48    20    21 ar  
    49    20    53 1   
    50    21    22 ar  
    51    21    37 1   
    52    22    23 ar  
    53    22    54 1   
    54    23    55 1   
    55    24    25 ar  
    56    24    56 1   
    57    25    57 1   
    58    26    34 1   
    59    26    58 1   
    60    26    59 1   
    61    27    28 1   
    62    28    60 1   
    63    28    61 1   
    64    28    62 1   
    65    29    34 1   
    66    29    63 1   
    67    29    64 1   
    68    32    65 1   
    69    33    36 1   
@<TRIPOS>SUBSTRUCTURE
     1 I1R         1 TEMP              0 ****  ****    0 ROOT
