@<TRIPOS>MOLECULE
I1R
   65    69     1     0     0
SMALL
No Charge or Current Charge


@<TRIPOS>ATOM
      1 C7          -1.3890    24.4950     9.0660 c3         1 I1R       0.218100
      2 C6          -0.0870    25.2150     9.4350 ca         1 I1R      -0.061300
      3 C5           0.3250    26.3130     8.6510 ca         1 I1R      -0.123000
      4 C4           1.5110    27.0020     8.9430 ca         1 I1R      -0.092000
      5 C3           2.3020    26.5970    10.0280 ca         1 I1R      -0.145000
      6 C2           1.9050    25.5070    10.8170 ca         1 I1R       0.160000
      7 C10         -0.1110    21.7500     6.6840 c6         1 I1R      -0.078400
      8 C11         -1.4110    20.9220     6.5500 c6         1 I1R      -0.074400
      9 C12         -2.2200    20.9310     7.8780 c6         1 I1R      -0.050700
     10 C13         -1.5520    20.0910     9.0160 c3         1 I1R      -0.113700
     11 C14         -1.3310    18.6420     8.6880 cc         1 I1R       0.495300
     12 C16         -0.5570    16.7430     8.2570 cd         1 I1R       0.622500
     13 C17          0.4200    15.6580     8.0150 ca         1 I1R      -0.173500
     14 C18          1.8070    15.9070     8.0900 ca         1 I1R      -0.039500
     15 C19          2.7330    14.8750     7.8590 ca         1 I1R      -0.162000
     16 C20          2.3030    13.5720     7.5520 ca         1 I1R      -0.001000
     17 C22          3.2390    11.2150     7.1000 c          1 I1R       0.621700
     18 C23          4.5730    10.5170     6.8860 ca         1 I1R      -0.157600
     19 C24          5.8070    11.2170     6.9120 ca         1 I1R      -0.063500
     20 C25          7.0200    10.5330     6.7100 ca         1 I1R      -0.112000
     21 C26          7.0220     9.1500     6.4800 ca         1 I1R       0.139000
     22 C28          5.8110     8.4440     6.4510 ca         1 I1R      -0.112000
     23 C29          4.5960     9.1210     6.6520 ca         1 I1R      -0.063500
     24 C31          0.9180    13.3200     7.4720 ca         1 I1R      -0.162000
     25 C32         -0.0120    14.3490     7.7020 ca         1 I1R      -0.039500
     26 C35         -2.4610    22.3990     8.3270 c6         1 I1R       0.171800
     27 C36          0.7100    24.8040    10.5370 ca         1 I1R      -0.083300
     28 C37          0.2890    23.6120    11.4030 c3         1 I1R      -0.038800
     29 C9          -0.4090    23.1760     7.2070 c6         1 I1R       0.167800
     30 F1           2.6950    25.1410    11.8530 f          1 I1R      -0.183000
     31 N15         -0.1750    18.0300     8.5660 nd         1 I1R      -0.727000
     32 N21          3.3040    12.5850     7.3290 ns         1 I1R      -0.142000
     33 N33         -1.8690    16.5600     8.1940 nc         1 I1R      -0.382300
     34 N8          -1.1820    23.1480     8.4820 n3         1 I1R      -0.730600
     35 O30          2.1870    10.5860     7.0720 o          1 I1R      -0.567100
     36 O34         -2.4050    17.8330     8.4850 os         1 I1R      -0.092700
     37 Cl27         8.5420     8.3020     6.2280 cl         1 I1R      -0.190000
     38 H1          -1.9570    25.1180     8.3630 h1         1 I1R       0.038200
     39 H2          -2.0050    24.4170     9.9720 h1         1 I1R       0.038200
     40 H3          -0.2790    26.6320     7.8040 ha         1 I1R       0.113000
     41 H4           1.8180    27.8470     8.3290 ha         1 I1R       0.118000
     42 H5           3.2240    27.1250    10.2590 ha         1 I1R       0.131000
     43 H6           0.5910    21.2480     7.3630 hc         1 I1R       0.053200
     44 H7           0.3940    21.8120     5.7110 hc         1 I1R       0.053200
     45 H8          -2.0290    21.3510     5.7490 hc         1 I1R       0.045200
     46 H9          -1.1780    19.8950     6.2370 hc         1 I1R       0.045200
     47 H10         -3.2000    20.4700     7.6890 hc         1 I1R       0.059700
     48 H11         -0.5930    20.5360     9.3040 hc         1 I1R       0.084700
     49 H12         -2.1750    20.1400     9.9160 hc         1 I1R       0.084700
     50 H13          2.1780    16.9030     8.3260 ha         1 I1R       0.135000
     51 H14          3.7970    15.0950     7.9230 ha         1 I1R       0.131000
     52 H15          5.8500    12.2890     7.0870 ha         1 I1R       0.130000
     53 H16          7.9610    11.0780     6.7320 ha         1 I1R       0.135500
     54 H17          5.8150     7.3720     6.2720 ha         1 I1R       0.135500
     55 H18          3.6680     8.5510     6.6250 ha         1 I1R       0.130000
     56 H19          0.5350    12.3350     7.2280 ha         1 I1R       0.131000
     57 H20         -1.0740    14.1190     7.6320 ha         1 I1R       0.135000
     58 H21         -3.1020    22.9000     7.5850 h1         1 I1R       0.034200
     59 H22         -3.0170    22.3930     9.2760 h1         1 I1R       0.034200
     60 H23          0.3240    22.6790    10.8280 hc         1 I1R       0.048033
     61 H24          0.9330    23.4750    12.2790 hc         1 I1R       0.048033
     62 H25         -0.7330    23.7350    11.7800 hc         1 I1R       0.048033
     63 H26          0.5490    23.6980     7.3470 h1         1 I1R       0.034200
     64 H27         -0.9680    23.7300     6.4390 h1         1 I1R       0.034200
     65 H28          4.2430    12.9570     7.3390 hn         1 I1R       0.155000
@<TRIPOS>BOND
     1     1     2 1   
     2     1    34 1   
     3     1    38 1   
     4     1    39 1   
     5     2     3 ar  
     6     2    27 ar  
     7     3     4 ar  
     8     3    40 1   
     9     4     5 ar  
    10     4    41 1   
    11     5     6 ar  
    12     5    42 1   
    13     6    27 ar  
    14     6    30 1   
    15     7     8 1   
    16     7    29 1   
    17     7    43 1   
    18     7    44 1   
    19     8     9 1   
    20     8    45 1   
    21     8    46 1   
    22     9    10 1   
    23     9    26 1   
    24     9    47 1   
    25    10    11 1   
    26    10    48 1   
    27    10    49 1   
    28    11    31 2   
    29    11    36 1   
    30    12    13 1   
    31    12    31 1   
    32    12    33 2   
    33    13    14 ar  
    34    13    25 ar  
    35    14    15 ar  
    36    14    50 1   
    37    15    16 ar  
    38    15    51 1   
    39    16    24 ar  
    40    16    32 1   
    41    17    18 1   
    42    17    32 1   
    43    17    35 2   
    44    18    19 ar  
    45    18    23 ar  
    46    19    20 ar  
    47    19    52 1   
    48    20    21 ar  
    49    20    53 1   
    50    21    22 ar  
    51    21    37 1   
    52    22    23 ar  
    53    22    54 1   
    54    23    55 1   
    55    24    25 ar  
    56    24    56 1   
    57    25    57 1   
    58    26    34 1   
    59    26    58 1   
    60    26    59 1   
    61    27    28 1   
    62    28    60 1   
    63    28    61 1   
    64    28    62 1   
    65    29    34 1   
    66    29    63 1   
    67    29    64 1   
    68    32    65 1   
    69    33    36 1   
@<TRIPOS>SUBSTRUCTURE
     1 I1R         1 TEMP              0 ****  ****    0 ROOT
