@<TRIPOS>MOLECULE
I1S
   39    40     1     0     0
SMALL
bcc


@<TRIPOS>ATOM
      1 C4          -5.6590     0.2060    -0.7950 ca         1 I1S      -0.150000
      2 C5          -6.3210    -0.7980    -0.0960 ca         1 I1S      -0.166000
      3 C6          -4.2950     0.1150    -1.0260 ca         1 I1S      -0.099000
      4 C7          -3.5670    -0.9900    -0.5900 ca         1 I1S      -0.016300
      5 O8           2.3660    -0.6900     0.2400 os         1 I1S      -0.448900
      6 N10          0.1960    -0.8100    -0.1830 ns         1 I1S      -0.481900
      7 C11         -1.1830    -0.4900     0.1810 c3         1 I1S      -0.046500
      8 O12          0.9800    -1.2620     1.9160 o          1 I1S      -0.625000
      9 P13         -1.3150     1.3820     0.3490 p5         1 I1S       1.105700
     10 C17          3.4780    -0.7900     1.1250 c3         1 I1S       0.206700
     11 C18          4.6950    -0.3690     0.3550 ca         1 I1S      -0.063300
     12 C19          4.8480     0.9580    -0.0410 ca         1 I1S      -0.106000
     13 O1P         -2.6120     1.6570     1.1120 o          1 I1S      -0.915167
     14 C20          5.9660     1.3540    -0.7600 ca         1 I1S      -0.148500
     15 C21          6.9480     0.4260    -1.0900 ca         1 I1S      -0.149000
     16 C22         -5.6050    -1.8960     0.3600 ca         1 I1S      -0.150000
     17 C23         -4.2410    -1.9890     0.1080 ca         1 I1S      -0.099000
     18 C24         -2.0980    -1.1150    -0.8750 c3         1 I1S      -0.002100
     19 O2P         -0.0460     1.7570     1.1250 o          1 I1S      -0.915167
     20 C30          6.8030    -0.8970    -0.6990 ca         1 I1S      -0.148500
     21 C31          5.6790    -1.2910     0.0180 ca         1 I1S      -0.106000
     22 O3P         -1.3070     1.8790    -1.1070 o          1 I1S      -0.915167
     23 H4          -6.2090     1.0660    -1.1550 ha         1 I1S       0.096000
     24 H5          -7.3850    -0.7250     0.0880 ha         1 I1S       0.087000
     25 H6          -3.7730     0.9070    -1.5480 ha         1 I1S       0.144500
     26 HN10         0.4960    -0.3510    -1.0320 hn         1 I1S       0.299500
     27 H11         -1.3890    -0.9640     1.1440 h1         1 I1S       0.058700
     28 H17          3.3310    -0.1380     1.9900 h1         1 I1S       0.044200
     29 H17A         3.5930    -1.8120     1.4930 h1         1 I1S       0.044200
     30 H19          4.0910     1.6900     0.2180 ha         1 I1S       0.146500
     31 H20          6.0750     2.3880    -1.0610 ha         1 I1S       0.113500
     32 H21          7.8220     0.7360    -1.6480 ha         1 I1S       0.105000
     33 H22         -6.1080    -2.6860     0.9040 ha         1 I1S       0.096000
     34 H23         -3.6930    -2.8590     0.4540 ha         1 I1S       0.144500
     35 H24         -1.8470    -2.1760    -0.9750 hc         1 I1S       0.018200
     36 H24A        -1.8780    -0.6480    -1.8390 hc         1 I1S       0.018200
     37 H30          7.5620    -1.6260    -0.9530 ha         1 I1S       0.113500
     38 H31          5.5700    -2.3260     0.3190 ha         1 I1S       0.146500
     39 C9           1.1470    -0.9210     0.7620 c          1 I1S       0.763100
@<TRIPOS>BOND
     1     1     2 ar  
     2     1     3 ar  
     3     1    23 1   
     4     2    16 ar  
     5     2    24 1   
     6     3     4 ar  
     7     3    25 1   
     8     4    17 ar  
     9     4    18 1   
    10     5    10 1   
    11     5    39 1   
    12     6     7 1   
    13     6    26 1   
    14     6    39 1   
    15     7     9 1   
    16     7    18 1   
    17     7    27 1   
    18     8    39 2   
    19     9    13 1   
    20     9    19 1   
    21     9    22 1   
    22    10    11 1   
    23    10    28 1   
    24    10    29 1   
    25    11    12 ar  
    26    11    21 ar  
    27    12    14 ar  
    28    12    30 1   
    29    14    15 ar  
    30    14    31 1   
    31    15    20 ar  
    32    15    32 1   
    33    16    17 ar  
    34    16    33 1   
    35    17    34 1   
    36    18    35 1   
    37    18    36 1   
    38    20    21 ar  
    39    20    37 1   
    40    21    38 1   
@<TRIPOS>SUBSTRUCTURE
     1 I1S         1 TEMP              0 ****  ****    0 ROOT
