@<TRIPOS>MOLECULE
I1S
   39    40     1     0     0
SMALL
No Charge or Current Charge


@<TRIPOS>ATOM
      1 C4          -5.7920    -0.9200    -1.0050 ca         1 I1S      -0.132000
      2 C5          -6.1080    -1.4820     0.2420 ca         1 I1S      -0.148000
      3 C6          -4.4520    -0.6610    -1.3430 ca         1 I1S      -0.081000
      4 C7          -3.4180    -0.9620    -0.4320 ca         1 I1S      -0.016300
      5 O8           2.3090    -0.3190     0.1960 os         1 I1S      -0.472100
      6 N10          0.2030     0.3360    -0.0900 ns         1 I1S      -0.414900
      7 C11         -1.2790     0.4080     0.0270 c3         1 I1S      -0.204300
      8 O12          0.6370    -1.4820     1.2640 o          1 I1S      -0.576000
      9 P13         -1.9470     2.1280    -0.3210 p5         1 I1S       1.263500
     10 C17          3.3220    -1.1770     0.7480 c3         1 I1S       0.229900
     11 C18          4.6810    -0.7110     0.2430 ca         1 I1S      -0.063300
     12 C19          5.4270     0.2350     0.9760 ca         1 I1S      -0.088000
     13 O1P         -3.2330     2.3260     0.4090 o          1 I1S      -0.915167
     14 C20          6.6830     0.6620     0.5110 ca         1 I1S      -0.130500
     15 C21          7.2010     0.1470    -0.6900 ca         1 I1S      -0.131000
     16 C22         -5.0830    -1.7880     1.1530 ca         1 I1S      -0.132000
     17 C23         -3.7430    -1.5300     0.8160 ca         1 I1S      -0.081000
     18 C24         -1.9590    -0.7140    -0.8040 c3         1 I1S      -0.002100
     19 O2P         -0.9460     3.1270     0.1580 o          1 I1S      -0.915167
     20 C30          6.4620    -0.7930    -1.4260 ca         1 I1S      -0.130500
     21 C31          5.2050    -1.2210    -0.9620 ca         1 I1S      -0.088000
     22 O3P         -2.1510     2.2990    -1.7890 o          1 I1S      -0.915167
     23 H4          -6.5850    -0.6840    -1.7110 ha         1 I1S       0.078000
     24 H5          -7.1450    -1.6820     0.5030 ha         1 I1S       0.069000
     25 H6          -4.2150    -0.2270    -2.3110 ha         1 I1S       0.126500
     26 HN10         0.6800     1.0450    -0.6340 hn         1 I1S       0.299500
     27 H11         -1.5230     0.2470     1.0840 h1         1 I1S       0.058700
     28 H17          3.3060    -1.1390     1.8460 h1         1 I1S       0.044200
     29 H17A         3.1560    -2.2190     0.4430 h1         1 I1S       0.044200
     30 H19          5.0310     0.6390     1.9050 ha         1 I1S       0.128500
     31 H20          7.2540     1.3910     1.0810 ha         1 I1S       0.095500
     32 H21          8.1730     0.4780    -1.0490 ha         1 I1S       0.087000
     33 H22         -5.3260    -2.2250     2.1180 ha         1 I1S       0.078000
     34 H23         -2.9530    -1.7750     1.5230 ha         1 I1S       0.126500
     35 H24         -1.4090    -1.6510    -0.6550 hc         1 I1S       0.018200
     36 H24A        -1.8610    -0.4850    -1.8720 hc         1 I1S       0.018200
     37 H30          6.8610    -1.1910    -2.3560 ha         1 I1S       0.095500
     38 H31          4.6370    -1.9480    -1.5390 ha         1 I1S       0.128500
     39 C9           1.0150    -0.5800     0.5300 c          1 I1S       0.647100
@<TRIPOS>BOND
     1     1     2 ar  
     2     1     3 ar  
     3     1    23 1   
     4     2    16 ar  
     5     2    24 1   
     6     3     4 ar  
     7     3    25 1   
     8     4    17 ar  
     9     4    18 1   
    10     5    10 1   
    11     5    39 1   
    12     6     7 1   
    13     6    26 1   
    14     6    39 1   
    15     7     9 1   
    16     7    18 1   
    17     7    27 1   
    18     8    39 2   
    19     9    13 1   
    20     9    19 1   
    21     9    22 1   
    22    10    11 1   
    23    10    28 1   
    24    10    29 1   
    25    11    12 ar  
    26    11    21 ar  
    27    12    14 ar  
    28    12    30 1   
    29    14    15 ar  
    30    14    31 1   
    31    15    20 ar  
    32    15    32 1   
    33    16    17 ar  
    34    16    33 1   
    35    17    34 1   
    36    18    35 1   
    37    18    36 1   
    38    20    21 ar  
    39    20    37 1   
    40    21    38 1   
@<TRIPOS>SUBSTRUCTURE
     1 I1S         1 TEMP              0 ****  ****    0 ROOT
