@<TRIPOS>MOLECULE
I1T
   45    46     1     0     0
SMALL
abcg2


@<TRIPOS>ATOM
      1 C01        -16.0080   -34.6790    60.1510 c5         1 I1T      -0.079400
      2 C06        -15.4670   -35.8430    60.9830 c5         1 I1T       0.107300
      3 C11        -18.1180   -34.5340    64.6170 ca         1 I1T       0.552700
      4 C15        -17.2450   -36.8080    65.0430 ca         1 I1T       0.010700
      5 C16        -17.5440   -35.7650    64.1630 ca         1 I1T      -0.239300
      6 C20        -12.9670   -35.9670    61.8060 c          1 I1T       0.668900
      7 C03        -15.0260   -33.1570    58.2760 c          1 I1T       0.727000
      8 C08        -13.9490   -35.9310    60.6750 c5         1 I1T      -0.196700
      9 C12        -18.4310   -34.4880    66.0220 ca         1 I1T      -0.288300
     10 C14        -17.5360   -36.6560    66.3820 ca         1 I1T      -0.208300
     11 O21        -13.0790   -35.3440    62.8370 o          1 I1T      -0.613100
     12 C02        -14.9840   -34.4960    59.0380 c5         1 I1T      -0.191700
     13 C09        -17.2670   -35.8810    62.6970 c3         1 I1T       0.155900
     14 C10        -13.6600   -34.7160    59.7710 c5         1 I1T      -0.059400
     15 N07        -15.8120   -35.7020    62.4220 ny         1 I1T      -0.821000
     16 N13        -18.1220   -35.5200    66.7950 na         1 I1T       0.015300
     17 O04        -14.1750   -33.0340    57.3720 o          1 I1T      -0.739500
     18 O05        -15.8790   -32.3190    58.6250 o          1 I1T      -0.739500
     19 O22        -15.4300   -37.9100    63.9100 os         1 I1T      -0.585400
     20 O24        -16.1120   -38.9850    61.6670 o          1 I1T      -0.893833
     21 O25        -13.6460   -38.5250    62.2730 o          1 I1T      -0.893833
     22 O26        -14.9530   -40.4130    63.4560 o          1 I1T      -0.893833
     23 P23        -14.9930   -39.0990    62.6970 p5         1 I1T       1.238900
     24 H1         -16.0470   -33.7670    60.7540 hc         1 I1T       0.052200
     25 H2         -17.0160   -34.8670    59.7820 hc         1 I1T       0.052200
     26 H3         -15.9190   -36.7920    60.7030 hx         1 I1T       0.140700
     27 H4         -17.3780   -38.6200    63.9480 h1         1 I1T       0.032700
     28 H5         -16.4980   -38.7570    65.4630 h1         1 I1T       0.032700
     29 H6         -20.0260   -33.0840    66.0950 hc         1 I1T       0.043033
     30 H7         -19.3090   -33.4330    67.6720 hc         1 I1T       0.043033
     31 H8         -18.4610   -32.4130    66.5040 hc         1 I1T       0.043033
     32 H9         -12.0370   -36.5080    61.5730 h4         1 I1T       0.009200
     33 H10        -13.7950   -36.8370    60.0890 hc         1 I1T       0.110700
     34 H11        -17.3320   -37.3980    67.1370 h4         1 I1T       0.147000
     35 H12        -15.1040   -35.3060    58.3080 hc         1 I1T       0.042700
     36 H13        -17.8210   -35.1290    62.1420 hx         1 I1T       0.109700
     37 H14        -17.5170   -36.8660    62.3050 hx         1 I1T       0.109700
     38 H15        -12.8190   -34.8900    59.1010 hc         1 I1T       0.043200
     39 H16        -13.4280   -33.8340    60.3770 hc         1 I1T       0.043200
     40 H17        -15.3660   -36.4570    62.9850 hn         1 I1T       0.521000
     41 H23        -18.3410   -35.4460    67.7820 hn         1 I1T       0.318000
     42 H18        -15.4890   -34.8080    62.7910 hn         1 I1T       0.521000
     43 C17        -16.6420   -38.1150    64.5870 c3         1 I1T       0.262900
     44 C19        -19.0910   -33.2970    66.6140 c3         1 I1T      -0.026800
     45 O18        -18.3640   -33.5530    63.8830 o          1 I1T      -0.685700
@<TRIPOS>BOND
     1     1     2 1   
     2     1    12 1   
     3     1    24 1   
     4     1    25 1   
     5     2     8 1   
     6     2    15 1   
     7     2    26 1   
     8     3     5 ar  
     9     3     9 ar  
    10     3    45 1   
    11     4     5 ar  
    12     4    10 ar  
    13     4    43 1   
    14     5    13 1   
    15     6     8 1   
    16     6    11 2   
    17     6    32 1   
    18     7    12 1   
    19     7    17 1   
    20     7    18 1   
    21     8    14 1   
    22     8    33 1   
    23     9    16 1   
    24     9    44 1   
    25    10    16 2   
    26    10    34 1   
    27    12    14 1   
    28    12    35 1   
    29    13    15 1   
    30    13    36 1   
    31    13    37 1   
    32    14    38 1   
    33    14    39 1   
    34    15    40 1   
    35    15    42 1   
    36    16    41 1   
    37    19    23 1   
    38    19    43 1   
    39    20    23 1   
    40    21    23 1   
    41    22    23 1   
    42    27    43 1   
    43    28    43 1   
    44    29    44 1   
    45    30    44 1   
    46    31    44 1   
@<TRIPOS>SUBSTRUCTURE
     1 I1T         1 TEMP              0 ****  ****    0 ROOT
