@<TRIPOS>MOLECULE
I1T
   45    46     1     0     0
SMALL
No Charge or Current Charge


@<TRIPOS>ATOM
      1 C01        -15.9110   -34.5080    60.1930 c5         1 I1T      -0.079400
      2 C06        -15.5520   -35.8820    60.8050 c5         1 I1T       0.107300
      3 C11        -18.1970   -34.5670    64.6750 ca         1 I1T       0.552700
      4 C15        -17.3730   -36.8640    64.8430 ca         1 I1T       0.010700
      5 C16        -17.6810   -35.7270    64.0580 ca         1 I1T      -0.239300
      6 C20        -13.2450   -35.4800    62.0410 c          1 I1T       0.668900
      7 C03        -14.9730   -33.2000    58.1870 c          1 I1T       0.727000
      8 C08        -13.9780   -35.9050    60.7420 c5         1 I1T      -0.196700
      9 C12        -18.3860   -34.5550    66.0760 ca         1 I1T      -0.288300
     10 C14        -17.5760   -36.8020    66.2320 ca         1 I1T      -0.208300
     11 O21        -13.5830   -34.5550    62.7800 o          1 I1T      -0.613100
     12 C02        -14.9960   -34.5620    58.9420 c5         1 I1T      -0.191700
     13 C09        -17.4800   -35.7360    62.5510 c3         1 I1T       0.155900
     14 C10        -13.6180   -34.8870    59.5980 c5         1 I1T      -0.059400
     15 N07        -15.9970   -35.8140    62.2660 ny         1 I1T      -0.821000
     16 N13        -18.0720   -35.6650    66.8670 na         1 I1T       0.015300
     17 O04        -15.2700   -33.1910    57.0010 o          1 I1T      -0.739500
     18 O05        -14.6700   -32.1750    58.7800 o          1 I1T      -0.739500
     19 O22        -15.4480   -37.9530    63.8830 os         1 I1T      -0.585400
     20 O24        -15.3200   -39.4980    61.9060 o          1 I1T      -0.893833
     21 O25        -13.2680   -38.6720    62.9050 o          1 I1T      -0.893833
     22 O26        -14.6020   -40.3280    64.0910 o          1 I1T      -0.893833
     23 P23        -14.6450   -39.1530    63.1830 p5         1 I1T       1.238900
     24 H1         -15.6620   -33.6710    60.8560 hc         1 I1T       0.052200
     25 H2         -16.9730   -34.4280    59.9330 hc         1 I1T       0.052200
     26 H3         -16.0220   -36.7270    60.2860 hx         1 I1T       0.140700
     27 H4         -17.4170   -38.4260    63.3500 h1         1 I1T       0.032700
     28 H5         -16.9190   -38.9760    64.9590 h1         1 I1T       0.032700
     29 H6         -19.9380   -33.0630    66.4090 hc         1 I1T       0.043033
     30 H7         -19.0310   -33.4730    67.8700 hc         1 I1T       0.043033
     31 H8         -18.2910   -32.4510    66.6320 hc         1 I1T       0.043033
     32 H9         -12.3350   -36.0760    62.2710 h4         1 I1T       0.009200
     33 H10        -13.6000   -36.8980    60.4750 hc         1 I1T       0.110700
     34 H11        -17.3440   -37.6550    66.8720 h4         1 I1T       0.147000
     35 H12        -15.3040   -35.3550    58.2500 hc         1 I1T       0.042700
     36 H13        -17.8860   -34.8280    62.0930 hx         1 I1T       0.109700
     37 H14        -17.9810   -36.5960    62.0960 hx         1 I1T       0.109700
     38 H15        -12.9110   -35.3080    58.8730 hc         1 I1T       0.043200
     39 H16        -13.1470   -33.9830    60.0020 hc         1 I1T       0.043200
     40 H17        -15.6380   -36.6430    62.7960 hn         1 I1T       0.521000
     41 H23        -18.2020   -35.6470    67.8740 hn         1 I1T       0.318000
     42 H18        -15.5170   -35.0260    62.7550 hn         1 I1T       0.521000
     43 C17        -16.8230   -38.1580    64.2330 c3         1 I1T       0.262900
     44 C19        -18.9410   -33.3200    66.7870 c3         1 I1T      -0.026800
     45 O18        -18.4800   -33.5630    63.9960 o          1 I1T      -0.685700
@<TRIPOS>BOND
     1     1     2 1   
     2     1    12 1   
     3     1    24 1   
     4     1    25 1   
     5     2     8 1   
     6     2    15 1   
     7     2    26 1   
     8     3     5 ar  
     9     3     9 ar  
    10     3    45 1   
    11     4     5 ar  
    12     4    10 ar  
    13     4    43 1   
    14     5    13 1   
    15     6     8 1   
    16     6    11 2   
    17     6    32 1   
    18     7    12 1   
    19     7    17 1   
    20     7    18 1   
    21     8    14 1   
    22     8    33 1   
    23     9    16 1   
    24     9    44 1   
    25    10    16 2   
    26    10    34 1   
    27    12    14 1   
    28    12    35 1   
    29    13    15 1   
    30    13    36 1   
    31    13    37 1   
    32    14    38 1   
    33    14    39 1   
    34    15    40 1   
    35    15    42 1   
    36    16    41 1   
    37    19    23 1   
    38    19    43 1   
    39    20    23 1   
    40    21    23 1   
    41    22    23 1   
    42    27    43 1   
    43    28    43 1   
    44    29    44 1   
    45    30    44 1   
    46    31    44 1   
@<TRIPOS>SUBSTRUCTURE
     1 I1T         1 TEMP              0 ****  ****    0 ROOT
