@<TRIPOS>MOLECULE
I1W
   93    97     1     0     0
SMALL
No Charge or Current Charge


@<TRIPOS>ATOM
      1 C2          13.9890     3.3410   -16.4290 c3         1 I1W       0.152000
      2 C3          14.7520     3.9840   -17.5830 cc         1 I1W       0.388200
      3 C5          15.3880     4.4440   -19.6420 ca         1 I1W       0.089400
      4 C6          15.3840     4.4610   -21.0460 ca         1 I1W      -0.047000
      5 C8          17.4760     5.7270   -21.0140 ca         1 I1W      -0.101000
      6 C9          17.4710     5.7060   -19.6070 ca         1 I1W      -0.076000
      7 C10         16.4140     5.0580   -18.9500 ca         1 I1W      -0.183000
      8 C18         14.1050     1.7860   -16.4550 c3         1 I1W       0.073700
      9 C19         13.5480     1.0970   -15.1780 c3         1 I1W      -0.069400
     10 C31         18.0910    -3.3070   -18.6950 c3         1 I1W       0.059700
     11 C39         20.3920    -7.9250   -16.5090 c3         1 I1W       0.152400
     12 C40         20.1850    -8.8700   -17.7190 c3         1 I1W      -0.104767
     13 C41         20.0310    -8.6830   -15.2100 c3         1 I1W      -0.104767
     14 C42         21.8680    -7.4600   -16.4290 c3         1 I1W      -0.104767
     15 O1          12.5990     3.7440   -16.4010 oh         1 I1W      -0.628000
     16 N4          14.4130     3.8190   -18.8750 nd         1 I1W      -0.490100
     17 C7          16.4330     5.1060   -21.7340 ca         1 I1W      -0.116000
     18 S11         16.2300     4.9050   -17.2140 ss         1 I1W       0.014800
     19 C20         13.6360    -0.4580   -15.1690 c5         1 I1W      -0.154700
     20 C21         12.7910    -1.1800   -16.2560 c5         1 I1W      -0.094400
     21 C22         12.7000    -2.6140   -15.6660 c5         1 I1W       0.099000
     22 N23         12.5910    -2.3080   -14.2410 ns         1 I1W      -0.516900
     23 C24         13.1270    -1.1040   -13.8740 c          1 I1W       0.563000
     24 O25         12.9730    -0.6150   -12.7660 o          1 I1W      -0.560000
     25 N26         15.5020     1.3750   -16.6790 ns         1 I1W      -0.497900
     26 C27         15.9290     0.5810   -17.7270 c          1 I1W       0.595100
     27 C28         17.4810     0.4480   -17.6700 c5         1 I1W       0.060700
     28 N29         17.9810    -0.7600   -18.3900 n          1 I1W      -0.389800
     29 C30         17.7710    -2.0440   -17.8420 c          1 I1W       0.586100
     30 C32         16.9650    -3.7110   -19.7130 c3         1 I1W      -0.043000
     31 C35         17.3430    -5.0580   -20.3850 c3         1 I1W      -0.088433
     32 N36         18.4880    -4.8840   -17.3740 ns         1 I1W      -0.501900
     33 N38         19.4910    -6.7690   -16.5980 ns         1 I1W      -0.517900
     34 O43         20.1830    -5.7940   -18.5650 o          1 I1W      -0.657100
     35 O44         17.2930    -2.1600   -16.7180 o          1 I1W      -0.632100
     36 C45         19.0950    -0.4780   -19.3310 c5         1 I1W       0.133000
     37 C46         19.1490     1.0540   -19.4000 cx         1 I1W      -0.122700
     38 C49         18.1700     1.6140   -18.4050 cx         1 I1W      -0.129700
     39 O50         15.1750     0.1220   -18.5750 o          1 I1W      -0.596100
     40 C1B         19.6600     1.7980   -18.1740 cx         1 I1W      -0.076000
     41 H1          14.4740     3.6850   -15.5050 h1         1 I1W       0.040700
     42 H53         14.5810     3.9770   -21.5970 ha         1 I1W       0.137000
     43 H55         18.2850     6.2220   -21.5470 ha         1 I1W       0.116000
     44 H56         18.2710     6.1800   -19.0420 ha         1 I1W       0.124000
     45 H61         13.5030     1.4410   -17.3090 h1         1 I1W       0.110700
     46 H63         14.0910     1.4910   -14.3100 hc         1 I1W       0.055700
     47 H62         12.5000     1.3910   -15.0390 hc         1 I1W       0.055700
     48 H72         19.0160    -3.1130   -19.2500 h1         1 I1W       0.086700
     49 H75         14.8350    -4.2530   -19.6660 hc         1 I1W       0.039478
     50 H74         15.6970    -4.6170   -18.1600 hc         1 I1W       0.039478
     51 H73         15.2540    -2.9440   -18.5530 hc         1 I1W       0.039478
     52 H78         16.0200    -2.9640   -21.5480 hc         1 I1W       0.039478
     53 H76         16.4820    -1.6810   -20.4280 hc         1 I1W       0.039478
     54 H77         17.7240    -2.5140   -21.3930 hc         1 I1W       0.039478
     55 H86         20.4830    -8.3940   -18.6600 hc         1 I1W       0.044367
     56 H84         20.7850    -9.7810   -17.6060 hc         1 I1W       0.044367
     57 H85         19.1330    -9.1660   -17.8070 hc         1 I1W       0.044367
     58 H87         20.1620    -8.0390   -14.3310 hc         1 I1W       0.044367
     59 H89         18.9880    -9.0220   -15.2310 hc         1 I1W       0.044367
     60 H88         20.6710    -9.5640   -15.0800 hc         1 I1W       0.044367
     61 H92         22.0110    -6.7550   -15.6000 hc         1 I1W       0.044367
     62 H91         22.5350    -8.3150   -16.2640 hc         1 I1W       0.044367
     63 H90         22.1870    -6.9660   -17.3530 hc         1 I1W       0.044367
     64 H2          12.2450     3.5310   -15.5100 ho         1 I1W       0.449000
     65 H54         16.4390     5.1220   -22.8210 ha         1 I1W       0.119000
     66 H64         14.6790    -0.7760   -15.2830 hc         1 I1W       0.095700
     67 H66         11.7930    -0.7350   -16.3470 hc         1 I1W       0.066700
     68 H65         13.2490    -1.1670   -17.2500 hc         1 I1W       0.066700
     69 H67         11.8320    -3.1640   -16.0530 h1         1 I1W       0.043700
     70 H68         13.6070    -3.1950   -15.8820 h1         1 I1W       0.043700
     71 H69         12.1130    -2.8670   -13.5440 hn         1 I1W       0.324500
     72 H70         16.2100     1.6900   -16.0260 hn         1 I1W       0.320500
     73 H71         17.7660     0.4080   -16.6110 h1         1 I1W       0.084700
     74 H81         16.6090    -5.3350   -21.1520 hc         1 I1W       0.039478
     75 H80         18.3260    -4.9930   -20.8670 hc         1 I1W       0.039478
     76 H79         17.3750    -5.8750   -19.6550 hc         1 I1W       0.039478
     77 H82         17.9370    -4.9560   -16.5290 hn         1 I1W       0.310500
     78 H83         18.8180    -6.6550   -15.8530 hn         1 I1W       0.304500
     79 H94         20.0400    -0.9160   -18.9790 h1         1 I1W       0.064700
     80 H93         18.8910    -0.9070   -20.3190 h1         1 I1W       0.064700
     81 H52         19.2430     1.5400   -20.3690 hc         1 I1W       0.098700
     82 H97         20.1140     3.8070   -17.4680 hc         1 I1W       0.041200
     83 H95         21.3050     3.1560   -18.6120 hc         1 I1W       0.041200
     84 H96         19.7360     3.7270   -19.1940 hc         1 I1W       0.041200
     85 H98         20.3120     1.6500   -16.0980 hc         1 I1W       0.041200
     86 H99         20.0630     0.0710   -16.8380 hc         1 I1W       0.041200
     87 H10         21.4830     1.0200   -17.2640 hc         1 I1W       0.041200
     88 H51         17.5850     2.4830   -18.6980 hc         1 I1W       0.106700
     89 C47         20.2360     3.1990   -18.3730 c3         1 I1W      -0.065600
     90 C33         15.6090    -3.8910   -18.9770 c3         1 I1W      -0.088433
     91 C34         16.7910    -2.6510   -20.8330 c3         1 I1W      -0.088433
     92 C37         19.4520    -5.8220   -17.5910 c          1 I1W       0.649100
     93 C48         20.4130     1.0900   -17.0350 c3         1 I1W      -0.065600
@<TRIPOS>BOND
     1     1     2 1   
     2     1     8 1   
     3     1    15 1   
     4     1    41 1   
     5     2    16 2   
     6     2    18 1   
     7     3     4 ar  
     8     3     7 ar  
     9     3    16 1   
    10     4    17 ar  
    11     4    42 1   
    12     5     6 ar  
    13     5    17 ar  
    14     5    43 1   
    15     6     7 ar  
    16     6    44 1   
    17     7    18 1   
    18     8     9 1   
    19     8    25 1   
    20     8    45 1   
    21     9    19 1   
    22     9    46 1   
    23     9    47 1   
    24    10    29 1   
    25    10    30 1   
    26    10    32 1   
    27    10    48 1   
    28    11    12 1   
    29    11    13 1   
    30    11    14 1   
    31    11    33 1   
    32    12    55 1   
    33    12    56 1   
    34    12    57 1   
    35    13    58 1   
    36    13    59 1   
    37    13    60 1   
    38    14    61 1   
    39    14    62 1   
    40    14    63 1   
    41    15    64 1   
    42    17    65 1   
    43    19    20 1   
    44    19    23 1   
    45    19    66 1   
    46    20    21 1   
    47    20    67 1   
    48    20    68 1   
    49    21    22 1   
    50    21    69 1   
    51    21    70 1   
    52    22    23 1   
    53    22    71 1   
    54    23    24 2   
    55    25    26 1   
    56    25    72 1   
    57    26    27 1   
    58    26    39 2   
    59    27    28 1   
    60    27    38 1   
    61    27    73 1   
    62    28    29 1   
    63    28    36 1   
    64    29    35 2   
    65    30    31 1   
    66    30    90 1   
    67    30    91 1   
    68    31    74 1   
    69    31    75 1   
    70    31    76 1   
    71    32    77 1   
    72    32    92 1   
    73    33    78 1   
    74    33    92 1   
    75    34    92 2   
    76    36    37 1   
    77    36    79 1   
    78    36    80 1   
    79    37    38 1   
    80    37    40 1   
    81    37    81 1   
    82    38    40 1   
    83    38    88 1   
    84    40    89 1   
    85    40    93 1   
    86    49    90 1   
    87    50    90 1   
    88    51    90 1   
    89    52    91 1   
    90    53    91 1   
    91    54    91 1   
    92    82    89 1   
    93    83    89 1   
    94    84    89 1   
    95    85    93 1   
    96    86    93 1   
    97    87    93 1   
@<TRIPOS>SUBSTRUCTURE
     1 I1W         1 TEMP              0 ****  ****    0 ROOT
