@<TRIPOS>MOLECULE
I1W
   93    97     1     0     0
SMALL
abcg2


@<TRIPOS>ATOM
      1 C2          14.5000     2.8870   -15.9210 c3         1 I1W       0.152000
      2 C3          15.5420     3.5980   -16.7420 cc         1 I1W       0.388200
      3 C5          16.5240     4.4820   -18.4940 ca         1 I1W       0.089400
      4 C6          16.6840     4.9260   -19.8070 ca         1 I1W      -0.047000
      5 C8          18.9790     5.4990   -19.2950 ca         1 I1W      -0.101000
      6 C9          18.8410     5.0670   -17.9880 ca         1 I1W      -0.076000
      7 C10         17.6060     4.5570   -17.6020 ca         1 I1W      -0.183000
      8 C18         14.3180     1.4660   -16.4980 c3         1 I1W       0.073700
      9 C19         13.4300     0.5890   -15.6190 c3         1 I1W      -0.069400
     10 C31         17.1770    -3.7520   -18.5290 c3         1 I1W       0.059700
     11 C39         21.1030    -5.9070   -16.4350 c3         1 I1W       0.152400
     12 C40         21.7130    -6.5860   -17.6630 c3         1 I1W      -0.104767
     13 C41         21.1260    -6.8870   -15.2620 c3         1 I1W      -0.104767
     14 C42         21.9060    -4.6630   -16.0540 c3         1 I1W      -0.104767
     15 O1          13.3130     3.6310   -15.9830 oh         1 I1W      -0.628000
     16 N4          15.3760     3.9360   -17.9690 nd         1 I1W      -0.490100
     17 C7          17.9100     5.4270   -20.1960 ca         1 I1W      -0.116000
     18 S11         17.1170     3.9200   -16.0720 ss         1 I1W       0.014800
     19 C20         13.1910    -0.7840   -16.2270 c5         1 I1W      -0.154700
     20 C21         12.3930    -0.8020   -17.5310 c5         1 I1W      -0.094400
     21 C22         11.6870    -2.1590   -17.5130 c5         1 I1W       0.099000
     22 N23         11.5750    -2.4310   -16.0960 ns         1 I1W      -0.516900
     23 C24         12.3980    -1.7100   -15.3160 c          1 I1W       0.563000
     24 O25         12.5050    -1.7980   -14.1040 o          1 I1W      -0.560000
     25 N26         15.6180     0.8660   -16.6850 ns         1 I1W      -0.497900
     26 C27         16.1040     0.4720   -17.8720 c          1 I1W       0.595100
     27 C28         17.5520    -0.0070   -17.8570 c5         1 I1W       0.060700
     28 N29         17.6390    -1.3160   -18.4880 n          1 I1W      -0.389800
     29 C30         17.1800    -2.3930   -17.8260 c          1 I1W       0.586100
     30 C32         15.7440    -4.2230   -18.9080 c3         1 I1W      -0.043000
     31 C35         15.8780    -5.4930   -19.7530 c3         1 I1W      -0.088433
     32 N36         17.8410    -4.7260   -17.6980 ns         1 I1W      -0.501900
     33 N38         19.6910    -5.5800   -16.6550 ns         1 I1W      -0.517900
     34 O43         19.9130    -4.0720   -18.3520 o          1 I1W      -0.657100
     35 O44         16.7680    -2.2990   -16.6740 o          1 I1W      -0.632100
     36 C45         18.2180    -1.2720   -19.8290 c5         1 I1W       0.133000
     37 C46         18.7860     0.1200   -19.9550 cx         1 I1W      -0.122700
     38 C49         18.3730     0.9020   -18.7430 cx         1 I1W      -0.129700
     39 O50         15.4780     0.5110   -18.9200 o          1 I1W      -0.596100
     40 C1B         19.8230     0.5890   -18.9730 cx         1 I1W      -0.076000
     41 H1          14.8670     2.8000   -14.8890 h1         1 I1W       0.040700
     42 H53         15.8550     4.8670   -20.5010 ha         1 I1W       0.137000
     43 H55         19.9300     5.8960   -19.6240 ha         1 I1W       0.116000
     44 H56         19.6690     5.1200   -17.2950 ha         1 I1W       0.124000
     45 H61         13.8690     1.5770   -17.4860 h1         1 I1W       0.110700
     46 H63         13.8930     0.4830   -14.6330 hc         1 I1W       0.055700
     47 H62         12.4690     1.0870   -15.4660 hc         1 I1W       0.055700
     48 H72         17.7300    -3.6930   -19.4660 h1         1 I1W       0.086700
     49 H75         13.8870    -4.8890   -18.0540 hc         1 I1W       0.039478
     50 H74         15.2630    -5.3100   -17.0590 hc         1 I1W       0.039478
     51 H73         14.6670    -3.6470   -17.0870 hc         1 I1W       0.039478
     52 H78         14.0950    -3.4940   -20.0930 hc         1 I1W       0.039478
     53 H76         14.8990    -2.2210   -19.1900 hc         1 I1W       0.039478
     54 H77         15.6580    -2.8940   -20.6370 hc         1 I1W       0.039478
     55 H86         21.7290    -5.9200   -18.5240 hc         1 I1W       0.044367
     56 H84         22.7410    -6.8870   -17.4550 hc         1 I1W       0.044367
     57 H85         21.1500    -7.4820   -17.9310 hc         1 I1W       0.044367
     58 H87         20.6990    -6.4390   -14.3630 hc         1 I1W       0.044367
     59 H89         20.5640    -7.7950   -15.4940 hc         1 I1W       0.044367
     60 H88         22.1510    -7.1800   -15.0380 hc         1 I1W       0.044367
     61 H92         21.4600    -4.1640   -15.1930 hc         1 I1W       0.044367
     62 H91         22.9240    -4.9500   -15.7860 hc         1 I1W       0.044367
     63 H90         21.9650    -3.9490   -16.8730 hc         1 I1W       0.044367
     64 H2          12.7830     3.4380   -15.2040 ho         1 I1W       0.449000
     65 H54         18.0490     5.7700   -21.2130 ha         1 I1W       0.119000
     66 H64         14.1580    -1.2810   -16.3830 hc         1 I1W       0.095700
     67 H66         11.6520     0.0010   -17.5230 hc         1 I1W       0.066700
     68 H65         13.0130    -0.6720   -18.4150 hc         1 I1W       0.066700
     69 H67         10.7060    -2.1280   -17.9850 h1         1 I1W       0.043700
     70 H68         12.2780    -2.9290   -18.0170 h1         1 I1W       0.043700
     71 H69         11.0230    -3.1920   -15.7300 hn         1 I1W       0.324500
     72 H70         16.1860     0.7150   -15.8640 hn         1 I1W       0.320500
     73 H71         17.9440    -0.0550   -16.8370 h1         1 I1W       0.084700
     74 H81         14.8930    -5.8300   -20.0810 hc         1 I1W       0.039478
     75 H80         16.4810    -5.3130   -20.6460 hc         1 I1W       0.039478
     76 H79         16.3380    -6.3070   -19.1930 hc         1 I1W       0.039478
     77 H82         17.3150    -5.0850   -16.9160 hn         1 I1W       0.310500
     78 H83         19.0280    -6.1780   -16.1860 hn         1 I1W       0.304500
     79 H94         18.9790    -2.0470   -19.9400 h1         1 I1W       0.064700
     80 H93         17.4590    -1.4310   -20.5990 h1         1 I1W       0.064700
     81 H52         18.7670     0.5660   -20.9420 hc         1 I1W       0.098700
     82 H97         21.0170     2.3390   -18.5690 hc         1 I1W       0.041200
     83 H95         21.5280     1.4320   -19.9920 hc         1 I1W       0.041200
     84 H96         20.0890     2.4480   -20.0630 hc         1 I1W       0.041200
     85 H98         20.9270     0.1510   -17.1870 hc         1 I1W       0.041200
     86 H99         20.0340    -1.2430   -17.7820 hc         1 I1W       0.041200
     87 H10         21.4880    -0.7150   -18.6130 hc         1 I1W       0.041200
     88 H51         18.0570     1.9380   -18.8170 hc         1 I1W       0.106700
     89 C47         20.6570     1.7670   -19.4270 c3         1 I1W      -0.065600
     90 C33         14.8540    -4.5270   -17.7000 c3         1 I1W      -0.088433
     91 C34         15.0700    -3.1420   -19.7510 c3         1 I1W      -0.088433
     92 C37         19.2080    -4.7490   -17.6090 c          1 I1W       0.649100
     93 C48         20.5950    -0.3630   -18.0910 c3         1 I1W      -0.065600
@<TRIPOS>BOND
     1     1     2 1   
     2     1     8 1   
     3     1    15 1   
     4     1    41 1   
     5     2    16 2   
     6     2    18 1   
     7     3     4 ar  
     8     3     7 ar  
     9     3    16 1   
    10     4    17 ar  
    11     4    42 1   
    12     5     6 ar  
    13     5    17 ar  
    14     5    43 1   
    15     6     7 ar  
    16     6    44 1   
    17     7    18 1   
    18     8     9 1   
    19     8    25 1   
    20     8    45 1   
    21     9    19 1   
    22     9    46 1   
    23     9    47 1   
    24    10    29 1   
    25    10    30 1   
    26    10    32 1   
    27    10    48 1   
    28    11    12 1   
    29    11    13 1   
    30    11    14 1   
    31    11    33 1   
    32    12    55 1   
    33    12    56 1   
    34    12    57 1   
    35    13    58 1   
    36    13    59 1   
    37    13    60 1   
    38    14    61 1   
    39    14    62 1   
    40    14    63 1   
    41    15    64 1   
    42    17    65 1   
    43    19    20 1   
    44    19    23 1   
    45    19    66 1   
    46    20    21 1   
    47    20    67 1   
    48    20    68 1   
    49    21    22 1   
    50    21    69 1   
    51    21    70 1   
    52    22    23 1   
    53    22    71 1   
    54    23    24 2   
    55    25    26 1   
    56    25    72 1   
    57    26    27 1   
    58    26    39 2   
    59    27    28 1   
    60    27    38 1   
    61    27    73 1   
    62    28    29 1   
    63    28    36 1   
    64    29    35 2   
    65    30    31 1   
    66    30    90 1   
    67    30    91 1   
    68    31    74 1   
    69    31    75 1   
    70    31    76 1   
    71    32    77 1   
    72    32    92 1   
    73    33    78 1   
    74    33    92 1   
    75    34    92 2   
    76    36    37 1   
    77    36    79 1   
    78    36    80 1   
    79    37    38 1   
    80    37    40 1   
    81    37    81 1   
    82    38    40 1   
    83    38    88 1   
    84    40    89 1   
    85    40    93 1   
    86    49    90 1   
    87    50    90 1   
    88    51    90 1   
    89    52    91 1   
    90    53    91 1   
    91    54    91 1   
    92    82    89 1   
    93    83    89 1   
    94    84    89 1   
    95    85    93 1   
    96    86    93 1   
    97    87    93 1   
@<TRIPOS>SUBSTRUCTURE
     1 I1W         1 TEMP              0 ****  ****    0 ROOT
