@<TRIPOS>MOLECULE
I1X
   50    51     1     0     0
SMALL
No Charge or Current Charge


@<TRIPOS>ATOM
      1 C10          5.6950    -3.8090   -36.8570 ca         1 I1X      -0.066000
      2 C13          6.0700    -1.5620   -38.4670 ca         1 I1X      -0.107000
      3 C14          7.1480    -2.4590   -38.2560 ca         1 I1X       0.001800
      4 C15          8.4840    -2.1870   -38.8890 ce         1 I1X       0.339800
      5 C18         13.3260    -7.9440   -38.5450 ca         1 I1X      -0.175600
      6 C20         13.4110    -8.9180   -40.7860 ca         1 I1X      -0.133000
      7 C02         12.6440    -7.7120   -37.2130 c          1 I1X       0.616700
      8 N03         11.4190    -8.3180   -37.0300 ns         1 I1X      -0.508900
      9 C04         10.5810    -8.1830   -35.8320 c3         1 I1X       0.099000
     10 C05          9.4740    -7.1190   -36.0020 c3         1 I1X      -0.101400
     11 C06         10.0030    -5.6790   -36.2140 c3         1 I1X      -0.077400
     12 C07          8.8980    -4.5970   -36.2470 c3         1 I1X      -0.098400
     13 N09          6.9260    -3.6320   -37.5000 na         1 I1X       0.059300
     14 C11          4.6340    -2.9090   -37.0490 ca         1 I1X      -0.114000
     15 C12          4.8170    -1.7870   -37.8710 ca         1 I1X       0.009000
     16 N16          8.6310    -1.2980   -39.8270 n2         1 I1X      -0.250700
     17 O17          9.9460    -1.1740   -40.3110 oh         1 I1X      -0.456000
     18 C19         12.7460    -8.7330   -39.5630 ca         1 I1X      -0.049000
     19 C21         14.6650    -8.3290   -41.0290 ca         1 I1X       0.023700
     20 C23         15.2640    -7.5440   -40.0110 ca         1 I1X      -0.181200
     21 N24         16.5980    -6.8980   -40.1910 no         1 I1X       0.691200
     22 O25         17.5160    -7.5780   -40.6660 o          1 I1X      -0.387500
     23 O26         16.7600    -5.7720   -39.7040 o          1 I1X      -0.387500
     24 C27         14.5860    -7.3530   -38.7850 ca         1 I1X      -0.004000
     25 H1           5.5780    -4.6840   -36.2150 h4         1 I1X       0.180000
     26 H2           6.2020    -0.6710   -39.0780 ha         1 I1X       0.186000
     27 H3           9.3390    -2.7630   -38.5320 h4         1 I1X       0.045800
     28 H5          12.9380    -9.5240   -41.5550 ha         1 I1X       0.133000
     29 H6          15.7040    -7.6010   -42.8050 hc         1 I1X       0.067700
     30 H7          16.1460    -9.2540   -42.3300 hc         1 I1X       0.067700
     31 H8          14.6020    -8.9370   -43.1270 hc         1 I1X       0.067700
     32 H9          11.0690    -8.8790   -37.7950 hn         1 I1X       0.312500
     33 H10         10.1140    -9.1560   -35.6270 h1         1 I1X       0.073200
     34 H11         11.2060    -7.9310   -34.9650 h1         1 I1X       0.073200
     35 H12          8.8400    -7.1380   -35.1060 hc         1 I1X       0.039700
     36 H13         10.5780    -5.6290   -37.1470 hc         1 I1X       0.070700
     37 H14          9.3790    -3.6110   -36.2860 hc         1 I1X       0.063700
     38 H15          7.3710    -5.6790   -37.3490 h1         1 I1X       0.092200
     39 H16          3.6750    -3.0780   -36.5620 ha         1 I1X       0.178000
     40 H17          4.0000    -1.0850   -38.0300 ha         1 I1X       0.171000
     41 H19          9.9000    -0.4740   -41.0060 ho         1 I1X       0.506000
     42 H20         11.7780    -9.2100   -39.4300 ha         1 I1X       0.120000
     43 H21         15.0490    -6.7470   -38.0070 ha         1 I1X       0.166000
     44 H22          8.8370    -7.4090   -36.8460 hc         1 I1X       0.039700
     45 H23         10.7030    -5.4360   -35.4040 hc         1 I1X       0.070700
     46 H24          8.3330    -4.6270   -35.3060 hc         1 I1X       0.063700
     47 H25          8.4720    -4.7840   -38.3820 h1         1 I1X       0.092200
     48 C08          7.9170    -4.7310   -37.4380 c3         1 I1X       0.025600
     49 C22         15.3160    -8.5410   -42.3950 c3         1 I1X      -0.061800
     50 O01         13.1490    -7.0210   -36.3390 o          1 I1X      -0.586100
@<TRIPOS>BOND
     1     1    13 1   
     2     1    14 ar  
     3     1    25 1   
     4     2     3 ar  
     5     2    15 ar  
     6     2    26 1   
     7     3     4 1   
     8     3    13 2   
     9     4    16 2   
    10     4    27 1   
    11     5     7 1   
    12     5    18 ar  
    13     5    24 ar  
    14     6    18 ar  
    15     6    19 ar  
    16     6    28 1   
    17     7     8 1   
    18     7    50 2   
    19     8     9 1   
    20     8    32 1   
    21     9    10 1   
    22     9    33 1   
    23     9    34 1   
    24    10    11 1   
    25    10    35 1   
    26    10    44 1   
    27    11    12 1   
    28    11    36 1   
    29    11    45 1   
    30    12    37 1   
    31    12    46 1   
    32    12    48 1   
    33    13    48 1   
    34    14    15 ar  
    35    14    39 1   
    36    15    40 1   
    37    16    17 1   
    38    17    41 1   
    39    18    42 1   
    40    19    20 ar  
    41    19    49 1   
    42    20    21 1   
    43    20    24 ar  
    44    21    22 1   
    45    21    23 1   
    46    24    43 1   
    47    29    49 1   
    48    30    49 1   
    49    31    49 1   
    50    38    48 1   
    51    47    48 1   
@<TRIPOS>SUBSTRUCTURE
     1 I1X         1 TEMP              0 ****  ****    0 ROOT
