@<TRIPOS>MOLECULE
I1X
   50    51     1     0     0
SMALL
abcg2


@<TRIPOS>ATOM
      1 C10          5.8680    -4.2290   -37.7210 ca         1 I1X      -0.066000
      2 C13          6.1030    -1.5710   -38.2300 ca         1 I1X      -0.107000
      3 C14          7.2330    -2.3800   -38.2050 ca         1 I1X       0.001800
      4 C15          8.5660    -1.8330   -38.4530 ce         1 I1X       0.339800
      5 C18         13.2900    -8.0690   -38.5130 ca         1 I1X      -0.175600
      6 C20         13.5860    -9.5620   -40.3830 ca         1 I1X      -0.133000
      7 C02         12.6820    -7.6600   -37.2060 c          1 I1X       0.616700
      8 N03         11.4530    -8.1360   -36.9600 ns         1 I1X      -0.508900
      9 C04         10.6980    -7.8680   -35.7530 c3         1 I1X       0.099000
     10 C05          9.5630    -6.8730   -35.9680 c3         1 I1X      -0.101400
     11 C06         10.0450    -5.4580   -36.2690 c3         1 I1X      -0.077400
     12 C07          8.9100    -4.4520   -36.4530 c3         1 I1X      -0.098400
     13 N09          7.0850    -3.6990   -37.9470 na         1 I1X       0.059300
     14 C11          4.7320    -3.4650   -37.7430 ca         1 I1X      -0.114000
     15 C12          4.8530    -2.1050   -37.9990 ca         1 I1X       0.009000
     16 N16          8.6590    -0.5730   -38.5970 n2         1 I1X      -0.250700
     17 O17          9.9020    -0.1580   -38.8470 oh         1 I1X      -0.456000
     18 C19         12.9630    -9.2400   -39.1910 ca         1 I1X      -0.049000
     19 C21         14.5690    -8.7560   -40.9540 ca         1 I1X       0.023700
     20 C23         14.8810    -7.5920   -40.2460 ca         1 I1X      -0.181200
     21 N24         15.9010    -6.6740   -40.7340 no         1 I1X       0.691200
     22 O25         16.8680    -7.1390   -41.2880 o          1 I1X      -0.387500
     23 O26         15.7310    -5.4930   -40.5420 o          1 I1X      -0.387500
     24 C27         14.2620    -7.2430   -39.0570 ca         1 I1X      -0.004000
     25 H1           5.8400    -5.2900   -37.5190 h4         1 I1X       0.180000
     26 H2           6.2240    -0.5190   -38.4380 ha         1 I1X       0.186000
     27 H3           9.4340    -2.4790   -38.5330 h4         1 I1X       0.045800
     28 H5          13.3040   -10.4740   -40.8930 ha         1 I1X       0.133000
     29 H6          15.2250    -8.3470   -42.9760 hc         1 I1X       0.067700
     30 H7          16.1920    -9.5430   -42.1260 hc         1 I1X       0.067700
     31 H8          14.5830    -9.9610   -42.7060 hc         1 I1X       0.067700
     32 H9          10.9690    -8.6420   -37.6850 hn         1 I1X       0.312500
     33 H10         10.2910    -8.8130   -35.3880 h1         1 I1X       0.073200
     34 H11         11.3870    -7.4990   -34.9950 h1         1 I1X       0.073200
     35 H12          8.9500    -6.8620   -35.0630 hc         1 I1X       0.039700
     36 H13         10.6810    -5.4520   -37.1580 hc         1 I1X       0.070700
     37 H14          9.3020    -3.4370   -36.3450 hc         1 I1X       0.063700
     38 H15          7.8660    -5.6150   -37.9540 h1         1 I1X       0.092200
     39 H16          3.7760    -3.9320   -37.5620 ha         1 I1X       0.178000
     40 H17          3.9810    -1.4660   -38.0220 ha         1 I1X       0.171000
     41 H19          9.8360     0.8020   -38.9250 ho         1 I1X       0.506000
     42 H20         12.2300    -9.9300   -38.7920 ha         1 I1X       0.120000
     43 H21         14.5430    -6.3350   -38.5440 ha         1 I1X       0.166000
     44 H22          8.9160    -7.2430   -36.7690 hc         1 I1X       0.039700
     45 H23         10.6750    -5.1150   -35.4440 hc         1 I1X       0.070700
     46 H24          8.1610    -4.5850   -35.6680 hc         1 I1X       0.063700
     47 H25          8.9410    -4.4230   -38.6290 h1         1 I1X       0.092200
     48 C08          8.2450    -4.6060   -37.8130 c3         1 I1X       0.025600
     49 C22         15.1790    -9.1660   -42.2610 c3         1 I1X      -0.061800
     50 O01         13.3000    -6.9330   -36.4400 o          1 I1X      -0.586100
@<TRIPOS>BOND
     1     1    13 1   
     2     1    14 ar  
     3     1    25 1   
     4     2     3 ar  
     5     2    15 ar  
     6     2    26 1   
     7     3     4 1   
     8     3    13 2   
     9     4    16 2   
    10     4    27 1   
    11     5     7 1   
    12     5    18 ar  
    13     5    24 ar  
    14     6    18 ar  
    15     6    19 ar  
    16     6    28 1   
    17     7     8 1   
    18     7    50 2   
    19     8     9 1   
    20     8    32 1   
    21     9    10 1   
    22     9    33 1   
    23     9    34 1   
    24    10    11 1   
    25    10    35 1   
    26    10    44 1   
    27    11    12 1   
    28    11    36 1   
    29    11    45 1   
    30    12    37 1   
    31    12    46 1   
    32    12    48 1   
    33    13    48 1   
    34    14    15 ar  
    35    14    39 1   
    36    15    40 1   
    37    16    17 1   
    38    17    41 1   
    39    18    42 1   
    40    19    20 ar  
    41    19    49 1   
    42    20    21 1   
    43    20    24 ar  
    44    21    22 1   
    45    21    23 1   
    46    24    43 1   
    47    29    49 1   
    48    30    49 1   
    49    31    49 1   
    50    38    48 1   
    51    47    48 1   
@<TRIPOS>SUBSTRUCTURE
     1 I1X         1 TEMP              0 ****  ****    0 ROOT
