@<TRIPOS>MOLECULE
I1Z
   80    82     1     0     0
SMALL
bcc


@<TRIPOS>ATOM
      1 C5         -15.1430   -40.7010   -17.3150 c5         1 I1Z      -0.094400
      2 C3         -14.0270   -39.9270   -15.1210 c3         1 I1Z      -0.069400
      3 C6         -15.8860   -41.9940   -17.6600 c5         1 I1Z       0.099000
      4 C12         -9.9110   -40.1880   -17.3330 c5         1 I1Z       0.060700
      5 C8         -15.1270   -42.1890   -15.4430 c          1 I1Z       0.705500
      6 C15        -10.4810   -43.7400   -18.6280 c3         1 I1Z       0.053700
      7 C16        -11.9040   -44.0710   -19.1540 c3         1 I1Z      -0.041000
      8 C18        -12.4900   -42.8280   -19.8270 c3         1 I1Z      -0.088767
      9 C17        -12.8650   -44.5420   -18.0610 c3         1 I1Z      -0.088767
     10 C19        -11.7710   -45.1780   -20.2030 c3         1 I1Z      -0.088767
     11 C23         -6.7350   -46.3980   -16.8050 c3         1 I1Z       0.151400
     12 C24         -6.2130   -47.0540   -18.0840 c3         1 I1Z      -0.104100
     13 C25         -6.7790   -47.4430   -15.6900 c3         1 I1Z      -0.104100
     14 C26         -5.8130   -45.2580   -16.3700 c3         1 I1Z      -0.104100
     15 O27         -7.7800   -44.3270   -18.5580 o          1 I1Z      -0.656100
     16 C1         -12.9590   -37.7180   -14.7410 c2         1 I1Z       0.407200
     17 C2         -13.1020   -38.8580   -15.7140 c3         1 I1Z       0.049400
     18 C29         -9.2780   -41.1560   -19.4830 c5         1 I1Z       0.132000
     19 C30         -8.6080   -39.8120   -19.3620 cx         1 I1Z      -0.122700
     20 C31         -7.5690   -39.6030   -18.2960 cx         1 I1Z      -0.077000
     21 C32         -6.6280   -38.4440   -18.5310 c3         1 I1Z      -0.065600
     22 C33         -6.9070   -40.7560   -17.5780 c3         1 I1Z      -0.065600
     23 C34         -8.9990   -39.2120   -18.0430 cx         1 I1Z      -0.129700
     24 C4         -14.3180   -41.0670   -16.0810 c5         1 I1Z      -0.154700
     25 N10        -11.7880   -39.3900   -16.0180 ns         1 I1Z      -0.561900
     26 N13         -9.9100   -41.3720   -18.1820 n          1 I1Z      -0.459800
     27 N20         -9.8980   -44.8580   -17.9270 ns         1 I1Z      -0.563900
     28 N22         -8.1150   -45.9310   -16.9710 ns         1 I1Z      -0.582900
     29 N7         -15.9850   -42.6440   -16.3710 ns         1 I1Z      -0.583900
     30 O9         -15.0050   -42.6110   -14.3050 o          1 I1Z      -0.633500
     31 H1         -14.5400   -40.3380   -18.1450 hc         1 I1Z       0.066200
     32 H2         -15.8640   -39.9190   -17.0600 hc         1 I1Z       0.066200
     33 H3         -13.5780   -40.3210   -14.2040 hc         1 I1Z       0.061700
     34 H4         -14.9650   -39.4460   -14.8320 hc         1 I1Z       0.061700
     35 H5         -16.8720   -41.8100   -18.0850 h1         1 I1Z       0.042700
     36 H6         -15.3230   -42.6070   -18.3700 h1         1 I1Z       0.042700
     37 H7          -9.5380   -40.4440   -16.3370 h1         1 I1Z       0.081700
     38 H8          -9.8710   -43.5610   -19.5120 h1         1 I1Z       0.089700
     39 H9         -12.6660   -42.0150   -19.1200 hc         1 I1Z       0.039811
     40 H10        -11.8390   -42.4520   -20.6190 hc         1 I1Z       0.039811
     41 H11        -13.4510   -43.0720   -20.2830 hc         1 I1Z       0.039811
     42 H12        -13.0170   -43.7900   -17.2890 hc         1 I1Z       0.039811
     43 H13        -13.8370   -44.7620   -18.5050 hc         1 I1Z       0.039811
     44 H14        -12.5270   -45.4610   -17.5770 hc         1 I1Z       0.039811
     45 H15        -11.3700   -46.0970   -19.7730 hc         1 I1Z       0.039811
     46 H16        -12.7500   -45.4100   -20.6270 hc         1 I1Z       0.039811
     47 H17        -11.1170   -44.8750   -21.0230 hc         1 I1Z       0.039811
     48 H18         -5.2070   -47.4450   -17.9240 hc         1 I1Z       0.044367
     49 H19         -6.8520   -47.8880   -18.3810 hc         1 I1Z       0.044367
     50 H20         -6.1680   -46.3460   -18.9100 hc         1 I1Z       0.044367
     51 H21         -7.1410   -47.0100   -14.7560 hc         1 I1Z       0.044367
     52 H22         -7.4300   -48.2790   -15.9560 hc         1 I1Z       0.044367
     53 H23         -5.7820   -47.8430   -15.5110 hc         1 I1Z       0.044367
     54 H24         -6.1880   -44.7820   -15.4630 hc         1 I1Z       0.044367
     55 H25         -4.8190   -45.6520   -16.1520 hc         1 I1Z       0.044367
     56 H26         -5.7090   -44.4960   -17.1390 hc         1 I1Z       0.044367
     57 H27        -12.3230   -37.9260   -13.8740 h4         1 I1Z      -0.040200
     58 H28        -13.5290   -38.4630   -16.6360 h1         1 I1Z       0.104700
     59 H29        -10.0170   -41.1300   -20.2860 h1         1 I1Z       0.065700
     60 H30         -8.5680   -41.9570   -19.6980 h1         1 I1Z       0.065700
     61 H31         -8.5630   -39.2080   -20.2600 hc         1 I1Z       0.099700
     62 H32         -6.2380   -38.0620   -17.5850 hc         1 I1Z       0.042033
     63 H33         -5.7770   -38.7550   -19.1390 hc         1 I1Z       0.042033
     64 H34         -7.1210   -37.6180   -19.0450 hc         1 I1Z       0.042033
     65 H35         -6.5850   -40.4440   -16.5830 hc         1 I1Z       0.042033
     66 H36         -7.5400   -41.6330   -17.4590 hc         1 I1Z       0.042033
     67 H37         -6.0170   -41.0730   -18.1250 hc         1 I1Z       0.042033
     68 H38         -9.2310   -38.1570   -17.9500 hc         1 I1Z       0.103700
     69 H39        -13.3720   -41.5280   -16.3940 hc         1 I1Z       0.094700
     70 H40        -11.2340   -39.7200   -15.2420 hn         1 I1Z       0.318500
     71 H41        -10.4370   -45.2270   -17.1590 hn         1 I1Z       0.310500
     72 H42         -8.8220   -46.5130   -16.5500 hn         1 I1Z       0.305500
     73 H43        -13.3800   -35.9850   -14.1530 hn         1 I1Z       0.379400
     74 H44        -16.5490   -43.4660   -16.2180 hn         1 I1Z       0.324500
     75 N36        -13.5660   -36.6270   -14.9190 n2         1 I1Z      -0.731100
     76 C11        -11.3250   -39.6110   -17.2580 c          1 I1Z       0.665100
     77 C14        -10.4560   -42.5110   -17.7180 c          1 I1Z       0.650100
     78 O35        -11.9430   -39.3580   -18.2800 o          1 I1Z      -0.602100
     79 C21         -8.5340   -44.9960   -17.8580 c          1 I1Z       0.779100
     80 O28        -10.9100   -42.5750   -16.5810 o          1 I1Z      -0.631100
@<TRIPOS>BOND
     1     1     3 1   
     2     1    24 1   
     3     1    31 1   
     4     1    32 1   
     5     2    17 1   
     6     2    24 1   
     7     2    33 1   
     8     2    34 1   
     9     3    29 1   
    10     3    35 1   
    11     3    36 1   
    12     4    23 1   
    13     4    26 1   
    14     4    37 1   
    15     4    76 1   
    16     5    24 1   
    17     5    29 1   
    18     5    30 2   
    19     6     7 1   
    20     6    27 1   
    21     6    38 1   
    22     6    77 1   
    23     7     8 1   
    24     7     9 1   
    25     7    10 1   
    26     8    39 1   
    27     8    40 1   
    28     8    41 1   
    29     9    42 1   
    30     9    43 1   
    31     9    44 1   
    32    10    45 1   
    33    10    46 1   
    34    10    47 1   
    35    11    12 1   
    36    11    13 1   
    37    11    14 1   
    38    11    28 1   
    39    12    48 1   
    40    12    49 1   
    41    12    50 1   
    42    13    51 1   
    43    13    52 1   
    44    13    53 1   
    45    14    54 1   
    46    14    55 1   
    47    14    56 1   
    48    15    79 2   
    49    16    17 1   
    50    16    57 1   
    51    16    75 2   
    52    17    25 1   
    53    17    58 1   
    54    18    19 1   
    55    18    26 1   
    56    18    59 1   
    57    18    60 1   
    58    19    20 1   
    59    19    23 1   
    60    19    61 1   
    61    20    21 1   
    62    20    22 1   
    63    20    23 1   
    64    21    62 1   
    65    21    63 1   
    66    21    64 1   
    67    22    65 1   
    68    22    66 1   
    69    22    67 1   
    70    23    68 1   
    71    24    69 1   
    72    25    70 1   
    73    25    76 1   
    74    26    77 1   
    75    27    71 1   
    76    27    79 1   
    77    28    72 1   
    78    28    79 1   
    79    29    74 1   
    80    73    75 1   
    81    76    78 2   
    82    77    80 2   
@<TRIPOS>SUBSTRUCTURE
     1 I1Z         1 TEMP              0 ****  ****    0 ROOT
