@<TRIPOS>MOLECULE
I1Z
   80    82     1     0     0
SMALL
No Charge or Current Charge


@<TRIPOS>ATOM
      1 C5         -14.8650   -41.6070   -16.2560 c5         1 I1Z      -0.094400
      2 C3         -14.1080   -39.4440   -14.9620 c3         1 I1Z      -0.069400
      3 C6         -14.8380   -43.1050   -15.8510 c5         1 I1Z       0.099000
      4 C12        -10.3140   -39.7920   -17.5380 c5         1 I1Z       0.060700
      5 C8         -14.3240   -41.8080   -13.9200 c          1 I1Z       0.563000
      6 C15         -9.8260   -43.5100   -18.7930 c3         1 I1Z       0.053700
      7 C16        -10.9950   -43.8460   -19.8020 c3         1 I1Z      -0.041000
      8 C18        -11.1990   -42.6970   -20.8260 c3         1 I1Z      -0.088767
      9 C17        -12.3350   -44.0740   -19.0450 c3         1 I1Z      -0.088767
     10 C19        -10.6620   -45.1330   -20.6110 c3         1 I1Z      -0.088767
     11 C23         -7.4220   -47.6020   -17.0730 c3         1 I1Z       0.151400
     12 C24         -7.4730   -48.4990   -18.3360 c3         1 I1Z      -0.104100
     13 C25         -7.8150   -48.4470   -15.8390 c3         1 I1Z      -0.104100
     14 C26         -5.9940   -47.0380   -16.8640 c3         1 I1Z      -0.104100
     15 O27         -7.6410   -45.3970   -19.0400 o          1 I1Z      -0.656100
     16 C1         -13.9170   -37.0870   -15.9100 c2         1 I1Z       0.407200
     17 C2         -13.6810   -38.5700   -16.1710 c3         1 I1Z       0.049400
     18 C29         -8.7650   -40.6780   -19.2860 c5         1 I1Z       0.132000
     19 C30         -8.5990   -39.1540   -19.2080 cx         1 I1Z      -0.122700
     20 C31         -8.0330   -38.5790   -17.9170 cx         1 I1Z      -0.077000
     21 C32         -7.3360   -37.2210   -17.9870 c3         1 I1Z      -0.065600
     22 C33         -7.3410   -39.4530   -16.8570 c3         1 I1Z      -0.065600
     23 C34         -9.5350   -38.6170   -18.1580 cx         1 I1Z      -0.129700
     24 C4         -13.9580   -40.9810   -15.1590 c5         1 I1Z      -0.154700
     25 N10        -12.2700   -38.8280   -16.5250 ns         1 I1Z      -0.494900
     26 N13         -9.8650   -40.9750   -18.3340 n          1 I1Z      -0.392800
     27 N20         -9.4930   -44.6710   -17.9310 ns         1 I1Z      -0.496900
     28 N22         -8.3980   -46.5100   -17.1760 ns         1 I1Z      -0.515900
     29 N7         -14.8380   -42.9850   -14.3940 ns         1 I1Z      -0.516900
     30 O9         -14.4030   -41.4690   -12.7510 o          1 I1Z      -0.558000
     31 H1         -14.4990   -41.4440   -17.2750 hc         1 I1Z       0.066200
     32 H2         -15.8860   -41.2090   -16.2050 hc         1 I1Z       0.066200
     33 H3         -13.5170   -39.1340   -14.0900 hc         1 I1Z       0.061700
     34 H4         -15.1520   -39.2110   -14.7160 hc         1 I1Z       0.061700
     35 H5         -15.7100   -43.6520   -16.2340 h1         1 I1Z       0.042700
     36 H6         -13.9270   -43.6040   -16.2100 h1         1 I1Z       0.042700
     37 H7         -10.0580   -39.9280   -16.4790 h1         1 I1Z       0.081700
     38 H8          -8.9340   -43.2650   -19.3800 h1         1 I1Z       0.089700
     39 H9         -11.4860   -41.7610   -20.3340 hc         1 I1Z       0.039811
     40 H10        -10.2850   -42.5200   -21.4040 hc         1 I1Z       0.039811
     41 H11        -11.9960   -42.9450   -21.5380 hc         1 I1Z       0.039811
     42 H12        -12.6620   -43.1650   -18.5270 hc         1 I1Z       0.039811
     43 H13        -13.1330   -44.3600   -19.7410 hc         1 I1Z       0.039811
     44 H14        -12.2410   -44.8740   -18.3010 hc         1 I1Z       0.039811
     45 H15        -10.6150   -46.0170   -19.9640 hc         1 I1Z       0.039811
     46 H16        -11.4280   -45.3290   -21.3710 hc         1 I1Z       0.039811
     47 H17         -9.6980   -45.0340   -21.1250 hc         1 I1Z       0.039811
     48 H18         -6.8180   -49.3700   -18.2200 hc         1 I1Z       0.044367
     49 H19         -8.4920   -48.8630   -18.5140 hc         1 I1Z       0.044367
     50 H20         -7.1450   -47.9570   -19.2300 hc         1 I1Z       0.044367
     51 H21         -7.7950   -47.8400   -14.9250 hc         1 I1Z       0.044367
     52 H22         -8.8260   -48.8590   -15.9510 hc         1 I1Z       0.044367
     53 H23         -7.1230   -49.2870   -15.7020 hc         1 I1Z       0.044367
     54 H24         -5.9630   -46.3660   -15.9980 hc         1 I1Z       0.044367
     55 H25         -5.2780   -47.8500   -16.6880 hc         1 I1Z       0.044367
     56 H26         -5.6470   -46.4790   -17.7400 hc         1 I1Z       0.044367
     57 H27        -13.4340   -36.6550   -15.0380 h4         1 I1Z      -0.040200
     58 H28        -14.3140   -38.8520   -17.0230 h1         1 I1Z       0.104700
     59 H29         -9.0350   -40.9900   -20.3020 h1         1 I1Z       0.065700
     60 H30         -7.8440   -41.2120   -19.0170 h1         1 I1Z       0.065700
     61 H31         -8.4600   -38.5860   -20.1250 hc         1 I1Z       0.099700
     62 H32         -7.3830   -36.7040   -17.0200 hc         1 I1Z       0.042033
     63 H33         -6.2790   -37.3330   -18.2590 hc         1 I1Z       0.042033
     64 H34         -7.8000   -36.5650   -18.7340 hc         1 I1Z       0.042033
     65 H35         -7.3910   -38.9770   -15.8710 hc         1 I1Z       0.042033
     66 H36         -7.7740   -40.4520   -16.7510 hc         1 I1Z       0.042033
     67 H37         -6.2810   -39.5910   -17.1020 hc         1 I1Z       0.042033
     68 H38        -10.0440   -37.6740   -18.3460 hc         1 I1Z       0.103700
     69 H39        -12.9170   -41.2280   -15.3980 hc         1 I1Z       0.094700
     70 H40        -11.5480   -38.5180   -15.8850 hn         1 I1Z       0.318500
     71 H41        -10.0730   -44.8310   -17.1180 hn         1 I1Z       0.310500
     72 H42         -9.1290   -46.4840   -16.4790 hn         1 I1Z       0.305500
     73 H43        -14.6460   -35.3820   -16.2920 hn         1 I1Z       0.379400
     74 H44        -15.2300   -43.6500   -13.7380 hn         1 I1Z       0.324500
     75 N36        -14.6420   -36.3420   -16.6680 n2         1 I1Z      -0.731100
     76 C11        -11.8590   -39.5820   -17.6080 c          1 I1Z       0.598100
     77 C14        -10.1240   -42.2820   -17.8650 c          1 I1Z       0.583100
     78 O35        -12.6260   -39.9810   -18.4760 o          1 I1Z      -0.602100
     79 C21         -8.4390   -45.5210   -18.1270 c          1 I1Z       0.645100
     80 O28        -10.6250   -42.4400   -16.7540 o          1 I1Z      -0.631100
@<TRIPOS>BOND
     1     1     3 1   
     2     1    24 1   
     3     1    31 1   
     4     1    32 1   
     5     2    17 1   
     6     2    24 1   
     7     2    33 1   
     8     2    34 1   
     9     3    29 1   
    10     3    35 1   
    11     3    36 1   
    12     4    23 1   
    13     4    26 1   
    14     4    37 1   
    15     4    76 1   
    16     5    24 1   
    17     5    29 1   
    18     5    30 2   
    19     6     7 1   
    20     6    27 1   
    21     6    38 1   
    22     6    77 1   
    23     7     8 1   
    24     7     9 1   
    25     7    10 1   
    26     8    39 1   
    27     8    40 1   
    28     8    41 1   
    29     9    42 1   
    30     9    43 1   
    31     9    44 1   
    32    10    45 1   
    33    10    46 1   
    34    10    47 1   
    35    11    12 1   
    36    11    13 1   
    37    11    14 1   
    38    11    28 1   
    39    12    48 1   
    40    12    49 1   
    41    12    50 1   
    42    13    51 1   
    43    13    52 1   
    44    13    53 1   
    45    14    54 1   
    46    14    55 1   
    47    14    56 1   
    48    15    79 2   
    49    16    17 1   
    50    16    57 1   
    51    16    75 2   
    52    17    25 1   
    53    17    58 1   
    54    18    19 1   
    55    18    26 1   
    56    18    59 1   
    57    18    60 1   
    58    19    20 1   
    59    19    23 1   
    60    19    61 1   
    61    20    21 1   
    62    20    22 1   
    63    20    23 1   
    64    21    62 1   
    65    21    63 1   
    66    21    64 1   
    67    22    65 1   
    68    22    66 1   
    69    22    67 1   
    70    23    68 1   
    71    24    69 1   
    72    25    70 1   
    73    25    76 1   
    74    26    77 1   
    75    27    71 1   
    76    27    79 1   
    77    28    72 1   
    78    28    79 1   
    79    29    74 1   
    80    73    75 1   
    81    76    78 2   
    82    77    80 2   
@<TRIPOS>SUBSTRUCTURE
     1 I1Z         1 TEMP              0 ****  ****    0 ROOT
