@<TRIPOS>MOLECULE
I20
   72    73     1     0     0
SMALL
No Charge or Current Charge


@<TRIPOS>ATOM
      1 C1          -0.7220     1.8720     0.1670 c3         1 I20      -0.070100
      2 C2          -0.7180     0.3410    -0.0490 c3         1 I20      -0.239300
      3 O5           0.5320    -1.9950     0.8100 o          1 I20      -0.814500
      4 C7           2.1110    -0.2140    -0.5430 c3         1 I20      -0.423400
      5 C8           3.5960    -0.3650    -0.0690 c3         1 I20      -0.097700
      6 C9           3.9790    -1.8290     0.2770 c3         1 I20      -0.035100
      7 C10          4.5920     0.2180    -1.1060 c          1 I20       0.592100
      8 C11          5.3820    -1.9350     0.8640 ca         1 I20      -0.057300
      9 C12          5.6130    -1.5950     2.2110 ca         1 I20      -0.099500
     10 C13          6.9080    -1.6810     2.7520 ca         1 I20      -0.117000
     11 C14          7.9790    -2.1070     1.9500 ca         1 I20      -0.127000
     12 C15          7.7550    -2.4470     0.6050 ca         1 I20      -0.117000
     13 C16          6.4610    -2.3610     0.0640 ca         1 I20      -0.099500
     14 C27         -5.3030    -0.9820    -0.4710 c3         1 I20      -0.055400
     15 N29         -6.9300    -2.8020     0.1050 n8         1 I20      -0.973200
     16 C30         -2.7630    -1.1510    -0.3960 c          1 I20       0.606100
     17 C32         -4.0770    -1.6040     0.2490 c3         1 I20      -0.161400
     18 C35          6.3540     2.0240    -1.4460 c3         1 I20      -0.036300
     19 NZ          -8.7030     2.0720    -3.3620 n1         1 I20      -0.451000
     20 CD          -8.7530     1.9470    -0.7120 c5         1 I20       0.175800
     21 CG          -8.2630     3.2840    -0.0860 c5         1 I20      -0.088400
     22 CB          -7.9140     2.8450     1.3540 c5         1 I20      -0.098400
     23 CA          -7.1190     1.5390     1.1020 c5         1 I20       0.109000
     24 N           -7.8140     0.9760    -0.0820 n          1 I20      -0.417800
     25 C           -7.8190    -0.4050    -0.3920 c          1 I20       0.564100
     26 O           -8.6860    -0.8690    -1.1260 o          1 I20      -0.612100
     27 C28         -6.6700    -1.3230     0.1860 c3         1 I20       0.101500
     28 O31         -2.3750    -1.5880    -1.4710 o          1 I20      -0.627100
     29 N3          -2.0400    -0.2310     0.3410 ns         1 I20      -0.461900
     30 P4           0.7770    -0.5230     0.6950 p5         1 I20       1.371000
     31 O6           1.1490     0.1000     2.0040 o          1 I20      -0.814500
     32 N34          5.3500     1.2770    -0.6530 ns         1 I20      -0.467900
     33 C37          7.3620     2.7640    -0.5090 c          1 I20       0.714000
     34 O39          8.5510     2.7220    -0.7910 o          1 I20      -0.736500
     35 O38          6.9380     3.2690     0.5240 o          1 I20      -0.736500
     36 C36          5.6810     3.0030    -2.4330 c3         1 I20      -0.075100
     37 O33          4.7030    -0.2220    -2.2450 o          1 I20      -0.682100
     38 H11         -0.8400     2.1160     1.2290 hc         1 I20       0.024700
     39 H12A         0.2140     2.3200    -0.1860 hc         1 I20       0.024700
     40 H13A        -1.5480     2.3370    -0.3860 hc         1 I20       0.024700
     41 H2          -0.5740     0.1640    -1.1220 h1         1 I20       0.075700
     42 H71          1.9540     0.8110    -0.8920 hc         1 I20       0.052700
     43 H72          1.9150    -0.8760    -1.3930 hc         1 I20       0.052700
     44 H8           3.7030     0.2230     0.8520 hc         1 I20       0.072700
     45 H91          3.2620    -2.2380     0.9980 hc         1 I20       0.066200
     46 H92          3.8900    -2.4500    -0.6230 hc         1 I20       0.066200
     47 H12          4.7890    -1.2630     2.8390 ha         1 I20       0.120500
     48 H13          7.0800    -1.4170     3.7930 ha         1 I20       0.092500
     49 H14          8.9800    -2.1730     2.3680 ha         1 I20       0.087000
     50 H15          8.5840    -2.7740    -0.0180 ha         1 I20       0.092500
     51 H16          6.2980    -2.6210    -0.9800 ha         1 I20       0.120500
     52 H271        -5.1710     0.1060    -0.4920 hc         1 I20       0.057200
     53 H272        -5.3150    -1.3060    -1.5200 hc         1 I20       0.057200
     54 H291        -7.8150    -3.0110     0.5850 hn         1 I20       0.405500
     55 H292        -7.1460    -3.0400    -0.8710 hn         1 I20       0.405500
     56 H321        -4.1010    -1.2990     1.3020 hc         1 I20       0.063200
     57 H322        -4.1400    -2.6960     0.1780 hc         1 I20       0.063200
     58 H35          6.9320     1.2940    -2.0270 h1         1 I20       0.041700
     59 HG2         -9.0300     4.0670    -0.1160 hc         1 I20       0.060200
     60 HB1         -7.3280     3.5930     1.8990 hc         1 I20       0.054200
     61 HB2         -8.8210     2.6480     1.9390 hc         1 I20       0.054200
     62 HA1         -6.0670     1.7530     0.8720 h1         1 I20       0.061200
     63 HA2         -7.1590     0.8770     1.9770 h1         1 I20       0.061200
     64 H28         -6.5900    -1.0810     1.2530 h1         1 I20       0.059700
     65 HN3         -2.4470     0.0480     1.2280 hn         1 I20       0.301500
     66 HN34         5.2030     1.5660     0.3080 hn         1 I20       0.343500
     67 H361         6.4380     3.5310    -3.0240 hc         1 I20       0.019367
     68 H362         5.0200     2.4690    -3.1270 hc         1 I20       0.019367
     69 H363         5.0840     3.7490    -1.8940 hc         1 I20       0.019367
     70 HD          -9.7860     1.7250    -0.4130 h1         1 I20       0.076700
     71 CE          -8.7320     1.9940    -2.1990 c1         1 I20       0.302900
     72 HG1         -7.3750     3.6750    -0.6000 hc         1 I20       0.060200
@<TRIPOS>BOND
     1     1     2 1   
     2     1    38 1   
     3     1    39 1   
     4     1    40 1   
     5     2    29 1   
     6     2    30 1   
     7     2    41 1   
     8     3    30 1   
     9     4     5 1   
    10     4    30 1   
    11     4    42 1   
    12     4    43 1   
    13     5     6 1   
    14     5     7 1   
    15     5    44 1   
    16     6     8 1   
    17     6    45 1   
    18     6    46 1   
    19     7    32 1   
    20     7    37 2   
    21     8     9 ar  
    22     8    13 ar  
    23     9    10 ar  
    24     9    47 1   
    25    10    11 ar  
    26    10    48 1   
    27    11    12 ar  
    28    11    49 1   
    29    12    13 ar  
    30    12    50 1   
    31    13    51 1   
    32    14    17 1   
    33    14    27 1   
    34    14    52 1   
    35    14    53 1   
    36    15    27 1   
    37    15    54 1   
    38    15    55 1   
    39    16    17 1   
    40    16    28 2   
    41    16    29 1   
    42    17    56 1   
    43    17    57 1   
    44    18    32 1   
    45    18    33 1   
    46    18    36 1   
    47    18    58 1   
    48    19    71 3   
    49    20    21 1   
    50    20    24 1   
    51    20    70 1   
    52    20    71 1   
    53    21    22 1   
    54    21    59 1   
    55    21    72 1   
    56    22    23 1   
    57    22    60 1   
    58    22    61 1   
    59    23    24 1   
    60    23    62 1   
    61    23    63 1   
    62    24    25 1   
    63    25    26 2   
    64    25    27 1   
    65    27    64 1   
    66    29    65 1   
    67    30    31 1   
    68    32    66 1   
    69    33    34 1   
    70    33    35 1   
    71    36    67 1   
    72    36    68 1   
    73    36    69 1   
@<TRIPOS>SUBSTRUCTURE
     1 I20         1 TEMP              0 ****  ****    0 ROOT
