@<TRIPOS>MOLECULE
I20
   72    73     1     0     0
SMALL
abcg2


@<TRIPOS>ATOM
      1 C1          -0.0890     2.8460    -0.1200 c3         1 I20      -0.070100
      2 C2          -0.4190     1.3940    -0.4290 c3         1 I20      -0.239300
      3 O5           0.3300    -1.2110    -0.0950 o          1 I20      -0.814500
      4 C7           2.3350     0.5410    -0.8200 c3         1 I20      -0.423400
      5 C8           3.6120    -0.0760    -0.2410 c3         1 I20      -0.097700
      6 C9           3.6210    -1.6100    -0.3100 c3         1 I20      -0.035100
      7 C10          4.8270     0.4600    -0.9820 c          1 I20       0.592100
      8 C11          4.8650    -2.1890     0.3030 ca         1 I20      -0.057300
      9 C12          4.9890    -2.2720     1.6890 ca         1 I20      -0.099500
     10 C13          6.1480    -2.7590     2.2750 ca         1 I20      -0.117000
     11 C14          7.2080    -3.1750     1.4790 ca         1 I20      -0.127000
     12 C15          7.0980    -3.0980     0.0980 ca         1 I20      -0.117000
     13 C16          5.9350    -2.6070    -0.4830 ca         1 I20      -0.099500
     14 C27         -5.0540    -0.3470    -0.1430 c3         1 I20      -0.055400
     15 N29         -5.7530    -2.2800     1.1820 n8         1 I20      -0.973200
     16 C30         -2.6080     0.2440    -0.3980 c          1 I20       0.606100
     17 C32         -3.6990    -0.2370     0.5360 c3         1 I20      -0.161400
     18 C35          6.9400     1.6990    -0.6970 c3         1 I20      -0.036300
     19 NZ          -9.2680    -0.2400    -3.1770 n1         1 I20      -0.451000
     20 CD          -9.3680     0.4530    -0.6580 c5         1 I20       0.175800
     21 CG          -9.7320     1.9410    -0.5230 c5         1 I20      -0.088400
     22 CB          -9.0010     2.3520     0.7480 c5         1 I20      -0.098400
     23 CA          -7.6870     1.5930     0.6460 c5         1 I20       0.109000
     24 N           -8.0850     0.3360     0.0170 n          1 I20      -0.417800
     25 C           -7.4770    -0.8660     0.0910 c          1 I20       0.564100
     26 O           -7.9870    -1.8510    -0.4260 o          1 I20      -0.612100
     27 C28         -6.1170    -0.9400     0.7920 c3         1 I20       0.101500
     28 O31         -2.5880    -0.0620    -1.5830 o          1 I20      -0.627100
     29 N3          -1.6840     1.0280     0.1810 ns         1 I20      -0.461900
     30 P4           0.8460     0.1810     0.2070 p5         1 I20       1.371000
     31 O6           1.1510     0.5570     1.6450 o          1 I20      -0.814500
     32 N34          5.6730     1.1780    -0.2400 ns         1 I20      -0.467900
     33 C37          7.8140     2.0550     0.5300 c          1 I20       0.714000
     34 O39          8.9880     2.3770     0.2760 o          1 I20      -0.736500
     35 O38          7.2710     2.0090     1.6520 o          1 I20      -0.736500
     36 C36          6.7700     2.9230    -1.5950 c3         1 I20      -0.075100
     37 O33          4.9950     0.2390    -2.1790 o          1 I20      -0.682100
     38 H11          0.0380     2.9990     0.9530 hc         1 I20       0.024700
     39 H12A         0.8370     3.1520    -0.6080 hc         1 I20       0.024700
     40 H13A        -0.8800     3.5110    -0.4700 hc         1 I20       0.024700
     41 H2          -0.5270     1.2610    -1.5070 h1         1 I20       0.075700
     42 H71          2.4660     1.6260    -0.8680 hc         1 I20       0.052700
     43 H72          2.1730     0.2000    -1.8460 hc         1 I20       0.052700
     44 H8           3.6750     0.2190     0.8110 hc         1 I20       0.072700
     45 H91          2.7370    -1.9880     0.2040 hc         1 I20       0.066200
     46 H92          3.5310    -1.9230    -1.3530 hc         1 I20       0.066200
     47 H12          4.1640    -1.9490     2.3150 ha         1 I20       0.120500
     48 H13          6.2240    -2.8180     3.3540 ha         1 I20       0.092500
     49 H14          8.1130    -3.5590     1.9330 ha         1 I20       0.087000
     50 H15          7.9180    -3.4220    -0.5300 ha         1 I20       0.092500
     51 H16          5.8590    -2.5420    -1.5620 ha         1 I20       0.120500
     52 H271        -5.3690     0.6410    -0.4860 hc         1 I20       0.057200
     53 H272        -4.9780    -0.9720    -1.0380 hc         1 I20       0.057200
     54 H291        -6.3900    -2.6260     1.8880 hn         1 I20       0.405500
     55 H292        -5.8450    -2.9050     0.3900 hn         1 I20       0.405500
     56 H321        -3.7690     0.4170     1.4090 hc         1 I20       0.063200
     57 H322        -3.4000    -1.2190     0.9140 hc         1 I20       0.063200
     58 H35          7.4580     0.9210    -1.2680 h1         1 I20       0.041700
     59 HG2        -10.8100     2.0790    -0.4750 hc         1 I20       0.060200
     60 HB1         -8.8520     3.4280     0.8170 hc         1 I20       0.054200
     61 HB2         -9.5540     2.0270     1.6320 hc         1 I20       0.054200
     62 HA1         -6.9690     2.1320     0.0220 h1         1 I20       0.061200
     63 HA2         -7.2310     1.4210     1.6190 h1         1 I20       0.061200
     64 H28         -6.1520    -0.3320     1.7010 h1         1 I20       0.059700
     65 HN3         -1.7520     1.1670     1.1780 hn         1 I20       0.301500
     66 HN34         5.5350     1.2440     0.7590 hn         1 I20       0.343500
     67 H361         7.7400     3.2810    -1.9370 hc         1 I20       0.019367
     68 H362         6.1700     2.6840    -2.4720 hc         1 I20       0.019367
     69 H363         6.2760     3.7350    -1.0570 hc         1 I20       0.019367
     70 HD         -10.1230    -0.1750    -0.1760 h1         1 I20       0.076700
     71 CE          -9.2910     0.0400    -2.0620 c1         1 I20       0.302900
     72 HG1         -9.3530     2.5040    -1.3770 hc         1 I20       0.060200
@<TRIPOS>BOND
     1     1     2 1   
     2     1    38 1   
     3     1    39 1   
     4     1    40 1   
     5     2    29 1   
     6     2    30 1   
     7     2    41 1   
     8     3    30 1   
     9     4     5 1   
    10     4    30 1   
    11     4    42 1   
    12     4    43 1   
    13     5     6 1   
    14     5     7 1   
    15     5    44 1   
    16     6     8 1   
    17     6    45 1   
    18     6    46 1   
    19     7    32 1   
    20     7    37 2   
    21     8     9 ar  
    22     8    13 ar  
    23     9    10 ar  
    24     9    47 1   
    25    10    11 ar  
    26    10    48 1   
    27    11    12 ar  
    28    11    49 1   
    29    12    13 ar  
    30    12    50 1   
    31    13    51 1   
    32    14    17 1   
    33    14    27 1   
    34    14    52 1   
    35    14    53 1   
    36    15    27 1   
    37    15    54 1   
    38    15    55 1   
    39    16    17 1   
    40    16    28 2   
    41    16    29 1   
    42    17    56 1   
    43    17    57 1   
    44    18    32 1   
    45    18    33 1   
    46    18    36 1   
    47    18    58 1   
    48    19    71 3   
    49    20    21 1   
    50    20    24 1   
    51    20    70 1   
    52    20    71 1   
    53    21    22 1   
    54    21    59 1   
    55    21    72 1   
    56    22    23 1   
    57    22    60 1   
    58    22    61 1   
    59    23    24 1   
    60    23    62 1   
    61    23    63 1   
    62    24    25 1   
    63    25    26 2   
    64    25    27 1   
    65    27    64 1   
    66    29    65 1   
    67    30    31 1   
    68    32    66 1   
    69    33    34 1   
    70    33    35 1   
    71    36    67 1   
    72    36    68 1   
    73    36    69 1   
@<TRIPOS>SUBSTRUCTURE
     1 I20         1 TEMP              0 ****  ****    0 ROOT
