@<TRIPOS>MOLECULE
I21
   67    71     1     0     0
SMALL
No Charge or Current Charge


@<TRIPOS>ATOM
      1 C3          29.3330    43.4420     1.7560 ca         1 I21      -0.158600
      2 C4          28.4330    44.0480     0.8530 ca         1 I21      -0.039000
      3 C5          27.4890    43.2860     0.1250 cp         1 I21      -0.070000
      4 C6          27.4840    41.8830     0.2960 ca         1 I21      -0.058000
      5 C7          28.3740    41.2530     1.1840 ca         1 I21      -0.107300
      6 C8          29.2850    42.0380     1.9230 ca         1 I21      -0.028000
      7 C9          30.3440    44.2990     2.4890 c          1 I21       0.731100
      8 C10         28.3510    39.7300     1.3110 c3         1 I21       0.211900
      9 O3          29.6600    39.2690     1.6760 os         1 I21      -0.421100
     10 N2          31.0970    43.6500     3.4540 ne         1 I21      -0.689100
     11 C11         32.1070    44.1980     4.0480 cf         1 I21       0.630200
     12 C12         31.4180    37.6040     2.0770 c3         1 I21       0.136200
     13 C13         33.4520    43.6440     3.8690 cf         1 I21      -0.287600
     14 C27         33.9050    42.6850     3.0030 ce         1 I21      -0.098200
     15 N3          31.7090    38.0980     3.4610 n8         1 I21      -0.992200
     16 C14         32.4570    38.2310     1.0860 c3         1 I21      -0.066100
     17 C15         33.1950    41.9210     1.9430 ca         1 I21      -0.062800
     18 C16         33.1670    40.5160     2.0040 ca         1 I21      -0.104000
     19 C17         32.4980    39.7640     1.0160 ca         1 I21      -0.097300
     20 C18         31.8900    40.4390    -0.0620 ca         1 I21      -0.098000
     21 C19         31.9390    41.8420    -0.1420 ca         1 I21      -0.117000
     22 C20         32.5930    42.5820     0.8580 ca         1 I21      -0.058000
     23 C21         30.4380    46.3640     6.7090 ca         1 I21      -0.107500
     24 C22         30.6700    45.3230     5.7930 ca         1 I21      -0.083000
     25 C23         31.8740    45.2710     5.0510 ca         1 I21      -0.204900
     26 C24         32.8170    46.3110     5.2200 ca         1 I21      -0.083000
     27 C25         32.5810    47.3510     6.1360 ca         1 I21      -0.107500
     28 C26         31.3940    47.3760     6.8850 ca         1 I21      -0.094000
     29 C29         29.9370    37.9280     1.6000 c          1 I21       0.606100
     30 C30         31.6240    36.0660     2.1140 c3         1 I21      -0.084100
     31 O1          30.4850    45.4830     2.2210 o          1 I21      -0.539100
     32 O2          29.1210    37.0880     1.2330 o          1 I21      -0.498000
     33 C31         26.5190    43.4820    -2.1820 ca         1 I21      -0.105000
     34 C32         25.6540    44.0560    -3.1270 ca         1 I21      -0.087000
     35 C33         24.7900    45.0920    -2.7440 ca         1 I21      -0.112000
     36 C34         24.7880    45.5490    -1.4160 ca         1 I21      -0.072000
     37 C35         25.6540    44.9780    -0.4600 ca         1 I21      -0.009000
     38 C36         26.5450    43.9310    -0.8390 cp         1 I21       0.008000
     39 N1          25.5140    45.8650     1.9880 n1         1 I21      -0.463000
     40 H4          28.4670    45.1240     0.7000 ha         1 I21       0.139000
     41 H6          26.7770    41.2820    -0.2720 ha         1 I21       0.119000
     42 H8          29.9750    41.5480     2.6050 ha         1 I21       0.145000
     43 H101        27.6090    39.4310     2.0640 h1         1 I21       0.057200
     44 H102        28.0480    39.3020     0.3460 h1         1 I21       0.057200
     45 H13         34.1860    44.0400     4.5670 ha         1 I21       0.188000
     46 H27         34.9540    42.3930     3.0960 ha         1 I21       0.176000
     47 HN31        32.7100    37.9900     3.6520 hn         1 I21       0.410500
     48 HN32        31.5740    39.1160     3.4620 hn         1 I21       0.410500
     49 H141        32.2620    37.8260     0.0840 hc         1 I21       0.062700
     50 H142        33.4590    37.8690     1.3460 hc         1 I21       0.062700
     51 H16         33.6650    40.0110     2.8270 ha         1 I21       0.105000
     52 H18         31.3760    39.8780    -0.8390 ha         1 I21       0.121000
     53 H19         31.4680    42.3550    -0.9760 ha         1 I21       0.119000
     54 H20         32.6360    43.6660     0.7870 ha         1 I21       0.130000
     55 H21         29.5120    46.3860     7.2820 ha         1 I21       0.124500
     56 H22         29.9140    44.5500     5.6720 ha         1 I21       0.118500
     57 H24         33.7340    46.3270     4.6340 ha         1 I21       0.118500
     58 H25         33.3170    48.1420     6.2610 ha         1 I21       0.124500
     59 H26         31.2120    48.1820     7.5930 ha         1 I21       0.115000
     60 H301        31.4730    35.6280     1.1200 hc         1 I21       0.051033
     61 H302        32.6380    35.8070     2.4430 hc         1 I21       0.051033
     62 H303        30.9130    35.5930     2.8030 hc         1 I21       0.051033
     63 H31         27.1890    42.6830    -2.4930 ha         1 I21       0.123000
     64 H32         25.6550    43.6990    -4.1550 ha         1 I21       0.120000
     65 H33         24.1180    45.5390    -3.4750 ha         1 I21       0.122000
     66 H34         24.1050    46.3470    -1.1290 ha         1 I21       0.127000
     67 C37         25.5800    45.4620     0.8930 cg         1 I21       0.333000
@<TRIPOS>BOND
     1     1     2 ar  
     2     1     6 ar  
     3     1     7 1   
     4     2     3 ar  
     5     2    40 1   
     6     3     4 ar  
     7     3    38 1   
     8     4     5 ar  
     9     4    41 1   
    10     5     6 ar  
    11     5     8 1   
    12     6    42 1   
    13     7    10 1   
    14     7    31 2   
    15     8     9 1   
    16     8    43 1   
    17     8    44 1   
    18     9    29 1   
    19    10    11 2   
    20    11    13 1   
    21    11    25 1   
    22    12    15 1   
    23    12    16 1   
    24    12    29 1   
    25    12    30 1   
    26    13    14 2   
    27    13    45 1   
    28    14    17 1   
    29    14    46 1   
    30    15    47 1   
    31    15    48 1   
    32    16    19 1   
    33    16    49 1   
    34    16    50 1   
    35    17    18 ar  
    36    17    22 ar  
    37    18    19 ar  
    38    18    51 1   
    39    19    20 ar  
    40    20    21 ar  
    41    20    52 1   
    42    21    22 ar  
    43    21    53 1   
    44    22    54 1   
    45    23    24 ar  
    46    23    28 ar  
    47    23    55 1   
    48    24    25 ar  
    49    24    56 1   
    50    25    26 ar  
    51    26    27 ar  
    52    26    57 1   
    53    27    28 ar  
    54    27    58 1   
    55    28    59 1   
    56    29    32 2   
    57    30    60 1   
    58    30    61 1   
    59    30    62 1   
    60    33    34 ar  
    61    33    38 ar  
    62    33    63 1   
    63    34    35 ar  
    64    34    64 1   
    65    35    36 ar  
    66    35    65 1   
    67    36    37 ar  
    68    36    66 1   
    69    37    38 ar  
    70    37    67 1   
    71    39    67 3   
@<TRIPOS>SUBSTRUCTURE
     1 I21         1 TEMP              0 ****  ****    0 ROOT
