@<TRIPOS>MOLECULE
I21
   67    71     1     0     0
SMALL
abcg2


@<TRIPOS>ATOM
      1 C3          29.9160    43.7570     0.8750 ca         1 I21      -0.158600
      2 C4          28.6940    44.3400     0.5540 ca         1 I21      -0.039000
      3 C5          27.6390    43.5550     0.1120 cp         1 I21      -0.070000
      4 C6          27.8370    42.1850    -0.0570 ca         1 I21      -0.058000
      5 C7          29.0580    41.5960     0.2370 ca         1 I21      -0.107300
      6 C8          30.0940    42.3860     0.7290 ca         1 I21      -0.028000
      7 C9          31.0150    44.6420     1.3520 c          1 I21       0.731100
      8 C10         29.2690    40.1360    -0.0290 c3         1 I21       0.211900
      9 O3          29.8380    39.5480     1.1430 os         1 I21      -0.421100
     10 N2          32.0040    43.9990     2.0480 ne         1 I21      -0.689100
     11 C11         32.3660    44.2520     3.2410 cf         1 I21       0.630200
     12 C12         31.0440    37.8560     2.3050 c3         1 I21       0.136200
     13 C13         33.5160    43.5780     3.8490 cf         1 I21      -0.287600
     14 C27         34.0630    42.4070     3.4950 ce         1 I21      -0.098200
     15 N3          30.6340    38.6550     3.4430 n8         1 I21      -0.992200
     16 C14         32.5710    37.9190     1.9970 c3         1 I21      -0.066100
     17 C15         33.7390    41.5190     2.3690 ca         1 I21      -0.062800
     18 C16         33.3830    40.2020     2.6580 ca         1 I21      -0.104000
     19 C17         33.0580    39.2960     1.6530 ca         1 I21      -0.097300
     20 C18         33.1600    39.7150     0.3270 ca         1 I21      -0.098000
     21 C19         33.5590    41.0100     0.0240 ca         1 I21      -0.117000
     22 C20         33.8340    41.9160     1.0370 ca         1 I21      -0.058000
     23 C21         29.5390    45.9950     5.0370 ca         1 I21      -0.107500
     24 C22         30.2320    45.1170     4.2190 ca         1 I21      -0.083000
     25 C23         31.6210    45.1860     4.1290 ca         1 I21      -0.204900
     26 C24         32.3060    46.1450     4.8720 ca         1 I21      -0.083000
     27 C25         31.6100    47.0350     5.6770 ca         1 I21      -0.107500
     28 C26         30.2270    46.9590     5.7640 ca         1 I21      -0.094000
     29 C29         30.3260    38.3220     1.0420 c          1 I21       0.606100
     30 C30         30.6660    36.4020     2.5820 c3         1 I21      -0.084100
     31 O1          31.0630    45.8210     1.0630 o          1 I21      -0.539100
     32 O2          30.2550    37.6610     0.0360 o          1 I21      -0.498000
     33 C31         25.7300    43.9760    -1.4310 ca         1 I21      -0.105000
     34 C32         24.5070    44.5570    -1.7300 ca         1 I21      -0.087000
     35 C33         23.8480    45.3350    -0.7870 ca         1 I21      -0.112000
     36 C34         24.4130    45.5200     0.4630 ca         1 I21      -0.072000
     37 C35         25.6430    44.9340     0.7620 ca         1 I21      -0.009000
     38 C36         26.3260    44.1600    -0.1880 cp         1 I21       0.008000
     39 N1          26.5560    45.2280     3.1580 n1         1 I21      -0.463000
     40 H4          28.5700    45.4120     0.6500 ha         1 I21       0.139000
     41 H6          27.0170    41.5700    -0.4110 ha         1 I21       0.119000
     42 H8          31.0510    41.9410     0.9720 ha         1 I21       0.145000
     43 H101        28.3260    39.6440    -0.2770 h1         1 I21       0.057200
     44 H102        29.9460    40.0050    -0.8770 h1         1 I21       0.057200
     45 H13         33.8770    44.0190     4.7690 ha         1 I21       0.188000
     46 H27         34.8130    42.0160     4.1760 ha         1 I21       0.176000
     47 HN31        31.0950    38.3070     4.2740 hn         1 I21       0.410500
     48 HN32        30.9170    39.6220     3.3430 hn         1 I21       0.410500
     49 H141        32.8030    37.2230     1.1880 hc         1 I21       0.062700
     50 H142        33.0870    37.5510     2.8880 hc         1 I21       0.062700
     51 H16         33.3560    39.8800     3.6930 ha         1 I21       0.105000
     52 H18         32.9390    39.0210    -0.4750 ha         1 I21       0.121000
     53 H19         33.6510    41.3170    -1.0090 ha         1 I21       0.119000
     54 H20         34.1370    42.9240     0.7920 ha         1 I21       0.130000
     55 H21         28.4620    45.9270     5.0990 ha         1 I21       0.124500
     56 H22         29.6810    44.3620     3.6700 ha         1 I21       0.118500
     57 H24         33.3850    46.2180     4.8080 ha         1 I21       0.118500
     58 H25         32.1510    47.7870     6.2350 ha         1 I21       0.124500
     59 H26         29.6840    47.6490     6.3970 ha         1 I21       0.115000
     60 H301        30.9220    35.7540     1.7460 hc         1 I21       0.051033
     61 H302        31.2090    36.0460     3.4580 hc         1 I21       0.051033
     62 H303        29.5990    36.3070     2.7840 hc         1 I21       0.051033
     63 H31         26.2410    43.3860    -2.1800 ha         1 I21       0.123000
     64 H32         24.0700    44.4070    -2.7080 ha         1 I21       0.120000
     65 H33         22.8960    45.7910    -1.0210 ha         1 I21       0.122000
     66 H34         23.9030    46.1110     1.2120 ha         1 I21       0.127000
     67 C37         26.1660    45.0940     2.0820 cg         1 I21       0.333000
@<TRIPOS>BOND
     1     1     2 ar  
     2     1     6 ar  
     3     1     7 1   
     4     2     3 ar  
     5     2    40 1   
     6     3     4 ar  
     7     3    38 1   
     8     4     5 ar  
     9     4    41 1   
    10     5     6 ar  
    11     5     8 1   
    12     6    42 1   
    13     7    10 1   
    14     7    31 2   
    15     8     9 1   
    16     8    43 1   
    17     8    44 1   
    18     9    29 1   
    19    10    11 2   
    20    11    13 1   
    21    11    25 1   
    22    12    15 1   
    23    12    16 1   
    24    12    29 1   
    25    12    30 1   
    26    13    14 2   
    27    13    45 1   
    28    14    17 1   
    29    14    46 1   
    30    15    47 1   
    31    15    48 1   
    32    16    19 1   
    33    16    49 1   
    34    16    50 1   
    35    17    18 ar  
    36    17    22 ar  
    37    18    19 ar  
    38    18    51 1   
    39    19    20 ar  
    40    20    21 ar  
    41    20    52 1   
    42    21    22 ar  
    43    21    53 1   
    44    22    54 1   
    45    23    24 ar  
    46    23    28 ar  
    47    23    55 1   
    48    24    25 ar  
    49    24    56 1   
    50    25    26 ar  
    51    26    27 ar  
    52    26    57 1   
    53    27    28 ar  
    54    27    58 1   
    55    28    59 1   
    56    29    32 2   
    57    30    60 1   
    58    30    61 1   
    59    30    62 1   
    60    33    34 ar  
    61    33    38 ar  
    62    33    63 1   
    63    34    35 ar  
    64    34    64 1   
    65    35    36 ar  
    66    35    65 1   
    67    36    37 ar  
    68    36    66 1   
    69    37    38 ar  
    70    37    67 1   
    71    39    67 3   
@<TRIPOS>SUBSTRUCTURE
     1 I21         1 TEMP              0 ****  ****    0 ROOT
