@<TRIPOS>MOLECULE
I22
   31    30     1     0     0
SMALL
No Charge or Current Charge


@<TRIPOS>ATOM
      1 O8          -4.3600    -0.5000    -1.4710 o          1 I22      -0.922833
      2 P1          -3.8710     0.4990    -0.4830 p5         1 I22       1.269900
      3 O9          -3.0400     1.5280    -1.1600 o          1 I22      -0.922833
      4 O10         -5.0370     1.1620     0.1610 o          1 I22      -0.922833
      5 O7          -3.0180    -0.2450     0.6640 os         1 I22      -0.573400
      6 C7          -1.8370    -1.0090     0.3400 c3         1 I22       0.225600
      7 C6          -0.6050    -0.0560     0.2590 c3         1 I22       0.112300
      8 O6          -0.7120     0.9050     1.3320 oh         1 I22      -0.742000
      9 C5           0.7590    -0.8240     0.3240 c3         1 I22       0.102300
     10 O5           0.8400    -1.7720    -0.7620 oh         1 I22      -0.700000
     11 C4           2.0100     0.1180     0.2930 c3         1 I22       0.113300
     12 O4           1.8930     1.1030     1.3340 oh         1 I22      -0.767000
     13 C3           3.3680    -0.6230     0.4750 c3         1 I22       0.087300
     14 O3           3.4930    -0.9620     1.8820 oh         1 I22      -0.692000
     15 C2           4.5560     0.2370    -0.0670 c          1 I22       0.548100
     16 O2           5.4620     0.6470     0.6610 o          1 I22      -0.505100
     17 C1           4.5710     0.4660    -1.6090 c3         1 I22       0.047600
     18 O1           5.9020     0.5050    -2.1840 oh         1 I22      -0.638000
     19 H71         -1.6610    -1.7610     1.1200 h1         1 I22       0.010700
     20 H72         -1.9570    -1.5410    -0.6130 h1         1 I22       0.010700
     21 H6          -0.6480     0.4690    -0.7050 h1         1 I22       0.059700
     22 HO6         -1.6940     0.9940     1.4540 ho         1 I22       0.516000
     23 H5           0.7810    -1.3700     1.2790 h1         1 I22       0.086700
     24 HO5          0.7280    -1.2800    -1.6080 ho         1 I22       0.493000
     25 H4           2.0080     0.6240    -0.6820 h1         1 I22       0.018700
     26 HO4          0.8950     1.2060     1.4480 ho         1 I22       0.555000
     27 H3           3.3610    -1.5350    -0.1370 h1         1 I22       0.091700
     28 HO3          3.0690    -0.1850     2.3280 ho         1 I22       0.519000
     29 H11          3.9870    -0.3400    -2.0730 h1         1 I22       0.042700
     30 H12          4.0380     1.4060    -1.8040 h1         1 I22       0.042700
     31 HO1          5.8060     0.6780    -3.1480 ho         1 I22       0.432000
@<TRIPOS>BOND
     1     1     2 1   
     2     2     3 1   
     3     2     4 1   
     4     2     5 1   
     5     5     6 1   
     6     6     7 1   
     7     6    19 1   
     8     6    20 1   
     9     7     8 1   
    10     7     9 1   
    11     7    21 1   
    12     8    22 1   
    13     9    10 1   
    14     9    11 1   
    15     9    23 1   
    16    10    24 1   
    17    11    12 1   
    18    11    13 1   
    19    11    25 1   
    20    12    26 1   
    21    13    14 1   
    22    13    15 1   
    23    13    27 1   
    24    14    28 1   
    25    15    16 2   
    26    15    17 1   
    27    17    18 1   
    28    17    29 1   
    29    17    30 1   
    30    18    31 1   
@<TRIPOS>SUBSTRUCTURE
     1 I22         1 TEMP              0 ****  ****    0 ROOT
