@<TRIPOS>MOLECULE
I22
   31    30     1     0     0
SMALL
abcg2


@<TRIPOS>ATOM
      1 O8          -4.6920    -0.4810     1.1920 o          1 I22      -0.922833
      2 P1          -4.4600     0.0650    -0.2130 p5         1 I22       1.269900
      3 O9          -4.5010    -0.9940    -1.3090 o          1 I22      -0.922833
      4 O10         -5.2000     1.3570    -0.5320 o          1 I22      -0.922833
      5 O7          -2.8450     0.6240    -0.2050 os         1 I22      -0.573400
      6 C7          -1.8490    -0.3220     0.0280 c3         1 I22       0.225600
      7 C6          -0.4860     0.3490    -0.0530 c3         1 I22       0.112300
      8 O6          -0.3690     1.3920     0.9090 oh         1 I22      -0.742000
      9 C5           0.6670    -0.6630     0.0860 c3         1 I22       0.102300
     10 O5           0.5800    -1.6560    -0.9090 oh         1 I22      -0.700000
     11 C4           2.0460     0.0220     0.0290 c3         1 I22       0.113300
     12 O4           2.2580     0.9160     1.0940 oh         1 I22      -0.767000
     13 C3           3.1940    -0.9920     0.0910 c3         1 I22       0.087300
     14 O3           3.1080    -1.8390     1.1960 oh         1 I22      -0.692000
     15 C2           4.5250    -0.2460     0.0630 c          1 I22       0.548100
     16 O2           5.3290    -0.3540     0.9550 o          1 I22      -0.505100
     17 C1           4.7850     0.6150    -1.1490 c3         1 I22       0.047600
     18 O1           6.1200     1.0250    -1.1480 oh         1 I22      -0.638000
     19 H71         -1.9490    -0.7870     1.0240 h1         1 I22       0.010700
     20 H72         -1.8860    -1.1420    -0.6970 h1         1 I22       0.010700
     21 H6          -0.3920     0.8410    -1.0290 h1         1 I22       0.059700
     22 HO6         -0.7520     1.0880     1.7410 ho         1 I22       0.516000
     23 H5           0.5700    -1.1820     1.0460 h1         1 I22       0.086700
     24 HO5          0.5860    -1.2320    -1.7750 ho         1 I22       0.493000
     25 H4           2.1040     0.5410    -0.9450 h1         1 I22       0.018700
     26 HO4          1.4280     1.4070     1.2150 ho         1 I22       0.555000
     27 H3           3.1530    -1.6230    -0.8020 h1         1 I22       0.091700
     28 HO3          3.1680    -1.3070     1.9970 ho         1 I22       0.519000
     29 H11          4.5140     0.0420    -2.0470 h1         1 I22       0.042700
     30 H12          4.0880     1.4640    -1.1110 h1         1 I22       0.042700
     31 HO1          6.2450     1.6180    -1.8950 ho         1 I22       0.432000
@<TRIPOS>BOND
     1     1     2 1   
     2     2     3 1   
     3     2     4 1   
     4     2     5 1   
     5     5     6 1   
     6     6     7 1   
     7     6    19 1   
     8     6    20 1   
     9     7     8 1   
    10     7     9 1   
    11     7    21 1   
    12     8    22 1   
    13     9    10 1   
    14     9    11 1   
    15     9    23 1   
    16    10    24 1   
    17    11    12 1   
    18    11    13 1   
    19    11    25 1   
    20    12    26 1   
    21    13    14 1   
    22    13    15 1   
    23    13    27 1   
    24    14    28 1   
    25    15    16 2   
    26    15    17 1   
    27    17    18 1   
    28    17    29 1   
    29    17    30 1   
    30    18    31 1   
@<TRIPOS>SUBSTRUCTURE
     1 I22         1 TEMP              0 ****  ****    0 ROOT
