@<TRIPOS>MOLECULE
I23
   62    64     1     0     0
SMALL
abcg2


@<TRIPOS>ATOM
      1 O28          3.1470     1.7080     1.2440 o          1 I23      -0.598100
      2 C9           2.6710     0.8340     0.5310 c          1 I23       0.603100
      3 N8           3.4170    -0.0590    -0.1370 ns         1 I23      -0.509900
      4 C7           4.8680    -0.1180    -0.0960 c3         1 I23       0.113700
      5 C6           5.4830     0.7340    -1.2110 c3         1 I23      -0.084400
      6 C5           6.9760     0.9890    -1.0140 c3         1 I23      -0.066900
      7 C4           7.9200    -0.0710    -1.5850 c3         1 I23      -0.070400
      8 C3           7.4830    -1.5270    -1.4090 c3         1 I23      -0.070400
      9 C2           6.7840    -1.8590    -0.0900 c3         1 I23      -0.066900
     10 C1           5.2820    -1.5860    -0.0990 c3         1 I23      -0.084400
     11 C10          1.1710     0.6400     0.3760 c6         1 I23      -0.143700
     12 C27          0.3960     1.9220     0.6360 c6         1 I23      -0.066400
     13 C26         -1.1030     1.6880     0.5350 c6         1 I23       0.189800
     14 N13         -1.5130     0.6340     1.4640 n3         1 I23      -0.703500
     15 C12         -0.8230    -0.6350     1.2280 c6         1 I23       0.189800
     16 C11          0.6800    -0.4430     1.3400 c6         1 I23      -0.066400
     17 S14         -3.1290     0.5480     1.8430 sy         1 I23       1.135600
     18 O15         -3.2550    -0.4650     2.8780 o          1 I23      -0.534500
     19 O25         -3.5470     1.8980     2.1840 o          1 I23      -0.534500
     20 C16         -3.9840     0.0080     0.3620 ca         1 I23      -0.287500
     21 C23         -4.1430    -1.3740     0.1130 ca         1 I23       0.022700
     22 C24         -3.8290    -2.5020     1.0630 c3         1 I23      -0.064300
     23 C22         -4.6920    -1.7560    -1.1060 ca         1 I23      -0.147500
     24 C20         -5.0930    -0.8450    -2.0700 ca         1 I23      -0.014300
     25 C21         -5.6860    -1.3060    -3.3660 c3         1 I23      -0.055800
     26 C19         -4.9570     0.5020    -1.7780 ca         1 I23      -0.147500
     27 C17         -4.4180     0.9650    -0.5810 ca         1 I23       0.022700
     28 C18         -4.4150     2.4630    -0.4100 c3         1 I23      -0.064300
     29 H1           2.9450    -0.7200    -0.7350 hn         1 I23       0.306500
     30 H2           5.1770     0.3210     0.8570 h1         1 I23       0.077700
     31 H3           5.2820     0.2820    -2.1890 hc         1 I23       0.041700
     32 H4           4.9610     1.6940    -1.2090 hc         1 I23       0.041700
     33 H5           7.2400     1.9490    -1.4640 hc         1 I23       0.041450
     34 H6           7.1630     1.1160     0.0570 hc         1 I23       0.041450
     35 H7           8.0630     0.1150    -2.6520 hc         1 I23       0.036200
     36 H8           8.9020     0.0720    -1.1260 hc         1 I23       0.036200
     37 H9           6.8160    -1.8140    -2.2280 hc         1 I23       0.036200
     38 H10          8.3660    -2.1610    -1.5200 hc         1 I23       0.036200
     39 H11          6.9140    -2.9250     0.1130 hc         1 I23       0.041450
     40 H12          7.2620    -1.3400     0.7470 hc         1 I23       0.041450
     41 H13          4.8250    -2.0620     0.7730 hc         1 I23       0.041700
     42 H14          4.8510    -2.0780    -0.9810 hc         1 I23       0.041700
     43 H15          0.9650     0.3010    -0.6470 hc         1 I23       0.048700
     44 H16          0.6330     2.3070     1.6300 hc         1 I23       0.064700
     45 H17          0.6660     2.6950    -0.0860 hc         1 I23       0.064700
     46 H18         -1.6150     2.6130     0.7910 h1         1 I23       0.053200
     47 H19         -1.3690     1.4210    -0.4970 h1         1 I23       0.053200
     48 H20         -1.1360    -1.3650     1.9710 h1         1 I23       0.053200
     49 H21         -1.0710    -1.0310     0.2330 h1         1 I23       0.053200
     50 H22          1.1600    -1.4000     1.1280 hc         1 I23       0.064700
     51 H23          0.9350    -0.1670     2.3670 hc         1 I23       0.064700
     52 H24         -4.4450    -2.4540     1.9590 hc         1 I23       0.058200
     53 H25         -4.0410    -3.4480     0.5690 hc         1 I23       0.058200
     54 H26         -2.7920    -2.5340     1.3830 hc         1 I23       0.058200
     55 H27         -4.8120    -2.8150    -1.3060 ha         1 I23       0.113000
     56 H28         -6.7450    -1.5430    -3.2410 hc         1 I23       0.048700
     57 H29         -5.6090    -0.5430    -4.1380 hc         1 I23       0.048700
     58 H30         -5.1940    -2.2090    -3.7260 hc         1 I23       0.048700
     59 H31         -5.2850     1.2340    -2.5070 ha         1 I23       0.113000
     60 H32         -5.0730     2.7740     0.3990 hc         1 I23       0.058200
     61 H33         -3.4340     2.8830    -0.2100 hc         1 I23       0.058200
     62 H34         -4.7790     2.9230    -1.3270 hc         1 I23       0.058200
@<TRIPOS>BOND
     1     1     2 2   
     2     2     3 1   
     3     2    11 1   
     4     3     4 1   
     5     3    29 1   
     6     4     5 1   
     7     4    10 1   
     8     4    30 1   
     9     5     6 1   
    10     5    31 1   
    11     5    32 1   
    12     6     7 1   
    13     6    33 1   
    14     6    34 1   
    15     7     8 1   
    16     7    35 1   
    17     7    36 1   
    18     8     9 1   
    19     8    37 1   
    20     8    38 1   
    21     9    10 1   
    22     9    39 1   
    23     9    40 1   
    24    10    41 1   
    25    10    42 1   
    26    11    12 1   
    27    11    16 1   
    28    11    43 1   
    29    12    13 1   
    30    12    44 1   
    31    12    45 1   
    32    13    14 1   
    33    13    46 1   
    34    13    47 1   
    35    14    15 1   
    36    14    17 1   
    37    15    16 1   
    38    15    48 1   
    39    15    49 1   
    40    16    50 1   
    41    16    51 1   
    42    17    18 2   
    43    17    19 2   
    44    17    20 1   
    45    20    21 ar  
    46    20    27 ar  
    47    21    22 1   
    48    21    23 ar  
    49    22    52 1   
    50    22    53 1   
    51    22    54 1   
    52    23    24 ar  
    53    23    55 1   
    54    24    25 1   
    55    24    26 ar  
    56    25    56 1   
    57    25    57 1   
    58    25    58 1   
    59    26    27 ar  
    60    26    59 1   
    61    27    28 1   
    62    28    60 1   
    63    28    61 1   
    64    28    62 1   
@<TRIPOS>SUBSTRUCTURE
     1 I23         1 TEMP              0 ****  ****    0 ROOT
