@<TRIPOS>MOLECULE
I23
   62    64     1     0     0
SMALL
No Charge or Current Charge


@<TRIPOS>ATOM
      1 O28          3.2400     0.7660     2.0530 o          1 I23      -0.598100
      2 C9           2.6650     0.4530     1.0190 c          1 I23       0.603100
      3 N8           3.3470     0.1450    -0.1380 ns         1 I23      -0.509900
      4 C7           4.8050     0.1310    -0.2750 c3         1 I23       0.113700
      5 C6           5.1940     0.5500    -1.7140 c3         1 I23      -0.084400
      6 C5           6.6860     0.9240    -1.8730 c3         1 I23      -0.066900
      7 C4           7.6580    -0.2500    -2.1380 c3         1 I23      -0.070400
      8 C3           7.3950    -1.5710    -1.3770 c3         1 I23      -0.070400
      9 C2           6.8910    -1.4270     0.0760 c3         1 I23      -0.066900
     10 C1           5.3590    -1.2390     0.1860 c3         1 I23      -0.084400
     11 C10          1.1280     0.3780     0.9290 c6         1 I23      -0.143700
     12 C27          0.4290     1.7420     1.1270 c6         1 I23      -0.066400
     13 C26         -1.1070     1.6050     0.9930 c6         1 I23       0.189800
     14 N13         -1.6660     0.5610     1.8920 n3         1 I23      -0.703500
     15 C12         -1.0300    -0.7640     1.6640 c6         1 I23       0.189800
     16 C11          0.5080    -0.7190     1.8240 c6         1 I23      -0.066400
     17 S14         -3.3780     0.5390     2.0090 sy         1 I23       1.135600
     18 O15         -3.6870    -0.5040     2.9940 o          1 I23      -0.534500
     19 O25         -3.7650     1.9220     2.3060 o          1 I23      -0.534500
     20 C16         -3.9420     0.0420     0.3190 ca         1 I23      -0.287500
     21 C23         -4.1330    -1.3400    -0.0240 ca         1 I23       0.022700
     22 C24         -4.0290    -2.5080     0.9610 c3         1 I23      -0.064300
     23 C22         -4.4920    -1.6960    -1.3390 ca         1 I23      -0.147500
     24 C20         -4.6910    -0.7330    -2.3290 ca         1 I23      -0.014300
     25 C21         -5.0830    -1.1450    -3.7400 c3         1 I23      -0.055800
     26 C19         -4.5670     0.6160    -1.9940 ca         1 I23      -0.147500
     27 C17         -4.2100     1.0240    -0.6940 ca         1 I23       0.022700
     28 C18         -4.1920     2.5390    -0.4690 c3         1 I23      -0.064300
     29 H1           2.7870    -0.1020    -0.9440 hn         1 I23       0.306500
     30 H2           5.2070     0.8970     0.4040 h1         1 I23       0.077700
     31 H3           4.9170    -0.2320    -2.4320 hc         1 I23       0.041700
     32 H4           4.6050     1.4370    -1.9790 hc         1 I23       0.041700
     33 H5           6.7830     1.6320    -2.7050 hc         1 I23       0.041450
     34 H6           7.0160     1.4690    -0.9800 hc         1 I23       0.041450
     35 H7           7.6560    -0.4730    -3.2130 hc         1 I23       0.036200
     36 H8           8.6730     0.0930    -1.9050 hc         1 I23       0.036200
     37 H9           6.6790    -2.1770    -1.9460 hc         1 I23       0.036200
     38 H10          8.3290    -2.1460    -1.3700 hc         1 I23       0.036200
     39 H11          7.1530    -2.3460     0.6170 hc         1 I23       0.041450
     40 H12          7.4170    -0.6100     0.5860 hc         1 I23       0.041450
     41 H13          5.0760    -1.3860     1.2350 hc         1 I23       0.041700
     42 H14          4.8610    -2.0370    -0.3770 hc         1 I23       0.041700
     43 H15          0.9090     0.0780    -0.1060 hc         1 I23       0.048700
     44 H16          0.6690     2.1410     2.1230 hc         1 I23       0.064700
     45 H17          0.8020     2.4740     0.3970 hc         1 I23       0.064700
     46 H18         -1.5380     2.5870     1.2310 h1         1 I23       0.053200
     47 H19         -1.3550     1.3790    -0.0550 h1         1 I23       0.053200
     48 H20         -1.4060    -1.5000     2.3880 h1         1 I23       0.053200
     49 H21         -1.2740    -1.1360     0.6570 h1         1 I23       0.053200
     50 H22          0.9360    -1.7000     1.5790 hc         1 I23       0.064700
     51 H23          0.7550    -0.5220     2.8770 hc         1 I23       0.064700
     52 H24         -4.7930    -2.4350     1.7430 hc         1 I23       0.058200
     53 H25         -4.1910    -3.4740     0.4690 hc         1 I23       0.058200
     54 H26         -3.0480    -2.5760     1.4340 hc         1 I23       0.058200
     55 H27         -4.6300    -2.7430    -1.5990 ha         1 I23       0.113000
     56 H28         -6.1730    -1.2090    -3.8390 hc         1 I23       0.048700
     57 H29         -4.7200    -0.4240    -4.4820 hc         1 I23       0.048700
     58 H30         -4.6640    -2.1240    -4.0010 hc         1 I23       0.048700
     59 H31         -4.7630     1.3610    -2.7620 ha         1 I23       0.113000
     60 H32         -4.9640     2.8410     0.2480 hc         1 I23       0.058200
     61 H33         -3.2250     2.9030    -0.1180 hc         1 I23       0.058200
     62 H34         -4.4030     3.0920    -1.3910 hc         1 I23       0.058200
@<TRIPOS>BOND
     1     1     2 2   
     2     2     3 1   
     3     2    11 1   
     4     3     4 1   
     5     3    29 1   
     6     4     5 1   
     7     4    10 1   
     8     4    30 1   
     9     5     6 1   
    10     5    31 1   
    11     5    32 1   
    12     6     7 1   
    13     6    33 1   
    14     6    34 1   
    15     7     8 1   
    16     7    35 1   
    17     7    36 1   
    18     8     9 1   
    19     8    37 1   
    20     8    38 1   
    21     9    10 1   
    22     9    39 1   
    23     9    40 1   
    24    10    41 1   
    25    10    42 1   
    26    11    12 1   
    27    11    16 1   
    28    11    43 1   
    29    12    13 1   
    30    12    44 1   
    31    12    45 1   
    32    13    14 1   
    33    13    46 1   
    34    13    47 1   
    35    14    15 1   
    36    14    17 1   
    37    15    16 1   
    38    15    48 1   
    39    15    49 1   
    40    16    50 1   
    41    16    51 1   
    42    17    18 2   
    43    17    19 2   
    44    17    20 1   
    45    20    21 ar  
    46    20    27 ar  
    47    21    22 1   
    48    21    23 ar  
    49    22    52 1   
    50    22    53 1   
    51    22    54 1   
    52    23    24 ar  
    53    23    55 1   
    54    24    25 1   
    55    24    26 ar  
    56    25    56 1   
    57    25    57 1   
    58    25    58 1   
    59    26    27 ar  
    60    26    59 1   
    61    27    28 1   
    62    28    60 1   
    63    28    61 1   
    64    28    62 1   
@<TRIPOS>SUBSTRUCTURE
     1 I23         1 TEMP              0 ****  ****    0 ROOT
