@<TRIPOS>MOLECULE
I24
   60    63     1     0     0
SMALL
No Charge or Current Charge


@<TRIPOS>ATOM
      1 N1           8.9230    50.4050    72.2840 nb         1 I24      -0.302000
      2 C2           9.8020    49.7300    73.0660 ca         1 I24       0.415300
      3 N3           9.9960    49.9480    74.3850 nb         1 I24      -0.318000
      4 C4           9.2450    50.9030    74.9590 ca         1 I24       0.476900
      5 C5           8.1760    51.3460    72.8850 ca         1 I24       0.158500
      6 C6           8.2990    51.6320    74.2170 ca         1 I24      -0.129600
      7 N7           7.4250    52.6340    74.6380 nc         1 I24      -0.538100
      8 C8           6.7700    52.9320    73.4980 cd         1 I24       0.395700
      9 N9           7.2010    52.1720    72.4000 na         1 I24      -0.284300
     10 N10          9.4100    51.1360    76.3140 nu         1 I24      -0.903100
     11 O11         10.5870    48.7500    72.4960 os         1 I24      -0.442300
     12 C12          9.9620    50.2100    77.3170 c3         1 I24       0.228800
     13 C13          9.8170    50.8170    78.7420 c3         1 I24       0.149800
     14 N14          8.4730    51.3960    79.0530 n3         1 I24      -0.740600
     15 C15          7.3580    50.3920    79.0140 c6         1 I24       0.130300
     16 C16          5.9820    51.0460    79.3380 c6         1 I24       0.152600
     17 O17          6.0370    51.7340    80.6110 os         1 I24      -0.449000
     18 C18          7.0570    52.7600    80.6450 c6         1 I24       0.152600
     19 C19          8.4570    52.1420    80.3500 c6         1 I24       0.130300
     20 C20         10.2460    48.1280    71.2370 c3         1 I24       0.175600
     21 C21          9.0250    47.2020    71.4480 c3         1 I24      -0.109400
     22 C22          8.6610    46.3950    70.1830 c3         1 I24      -0.073400
     23 C23          7.4320    45.4860    70.3820 c3         1 I24      -0.090100
     24 C24          6.6910    52.1520    71.0210 c3         1 I24       0.151900
     25 C25          5.9740    50.8490    70.6720 ca         1 I24      -0.195300
     26 C26          4.7480    50.5240    71.2850 ca         1 I24       0.225500
     27 C27          4.0830    49.3270    70.9750 ca         1 I24      -0.175000
     28 C28          4.6340    48.4360    70.0400 ca         1 I24      -0.048000
     29 C29          5.8530    48.7510    69.4200 ca         1 I24      -0.175000
     30 C30          6.5200    49.9450    69.7360 ca         1 I24       0.225500
     31 F31          4.1880    51.3700    72.1790 f          1 I24      -0.168500
     32 F32          7.6950    50.2160    69.1250 f          1 I24      -0.168500
     33 H10          8.7350    51.8050    76.6900 hn         1 I24       0.534000
     34 H8           5.9810    53.6670    73.3960 h5         1 I24       0.065800
     35 H241         5.9940    52.9900    70.8920 h1         1 I24       0.073200
     36 H242         7.5320    52.3280    70.3390 h1         1 I24       0.073200
     37 H121         9.4190    49.2550    77.2810 h1         1 I24       0.057700
     38 H122        11.0210    50.0000    77.1150 h1         1 I24       0.057700
     39 H201        10.0330    48.8750    70.4610 h1         1 I24       0.062200
     40 H202        11.0910    47.5200    70.8860 h1         1 I24       0.062200
     41 H131        10.0770    50.0430    79.4780 h1         1 I24       0.044200
     42 H132        10.5740    51.6070    78.8340 h1         1 I24       0.044200
     43 H151         7.2910    49.9230    78.0220 h1         1 I24       0.042950
     44 H152         7.5440    49.5870    79.7400 h1         1 I24       0.042950
     45 H191         8.7270    51.4720    81.1800 h1         1 I24       0.042950
     46 H192         9.2020    52.9510    80.3340 h1         1 I24       0.042950
     47 H161         5.7130    51.7640    78.5490 h1         1 I24       0.052700
     48 H162         5.2010    50.2740    79.3790 h1         1 I24       0.052700
     49 H181         6.8230    53.5310    79.8970 h1         1 I24       0.052700
     50 H182         7.0590    53.2340    81.6370 h1         1 I24       0.052700
     51 H211         9.2390    46.5080    72.2690 hc         1 I24       0.054700
     52 H212         8.1550    47.7990    71.7480 hc         1 I24       0.054700
     53 H221         8.4660    47.0860    69.3540 hc         1 I24       0.037700
     54 H222         9.5170    45.7760    69.8870 hc         1 I24       0.037700
     55 H231         7.6210    44.7460    71.1690 hc         1 I24       0.032033
     56 H232         6.5530    46.0760    70.6660 hc         1 I24       0.032033
     57 H233         7.2000    44.9490    69.4540 hc         1 I24       0.032033
     58 H27          3.1380    49.0950    71.4580 ha         1 I24       0.139000
     59 H28          4.1180    47.5090    69.7960 ha         1 I24       0.123000
     60 H29          6.2840    48.0700    68.6910 ha         1 I24       0.139000
@<TRIPOS>BOND
     1     1     2 ar  
     2     1     5 ar  
     3     2     3 ar  
     4     2    11 1   
     5     3     4 ar  
     6     4     6 ar  
     7     4    10 1   
     8     5     6 ar  
     9     5     9 1   
    10     6     7 1   
    11     7     8 2   
    12     8     9 1   
    13     8    34 1   
    14     9    24 1   
    15    10    12 1   
    16    10    33 1   
    17    11    20 1   
    18    12    13 1   
    19    12    37 1   
    20    12    38 1   
    21    13    14 1   
    22    13    41 1   
    23    13    42 1   
    24    14    15 1   
    25    14    19 1   
    26    15    16 1   
    27    15    43 1   
    28    15    44 1   
    29    16    17 1   
    30    16    47 1   
    31    16    48 1   
    32    17    18 1   
    33    18    19 1   
    34    18    49 1   
    35    18    50 1   
    36    19    45 1   
    37    19    46 1   
    38    20    21 1   
    39    20    39 1   
    40    20    40 1   
    41    21    22 1   
    42    21    51 1   
    43    21    52 1   
    44    22    23 1   
    45    22    53 1   
    46    22    54 1   
    47    23    55 1   
    48    23    56 1   
    49    23    57 1   
    50    24    25 1   
    51    24    35 1   
    52    24    36 1   
    53    25    26 ar  
    54    25    30 ar  
    55    26    27 ar  
    56    26    31 1   
    57    27    28 ar  
    58    27    58 1   
    59    28    29 ar  
    60    28    59 1   
    61    29    30 ar  
    62    29    60 1   
    63    30    32 1   
@<TRIPOS>SUBSTRUCTURE
     1 I24         1 TEMP              0 ****  ****    0 ROOT
