@<TRIPOS>MOLECULE
I24
   60    63     1     0     0
SMALL
abcg2


@<TRIPOS>ATOM
      1 N1           8.5810    50.1060    72.4740 nb         1 I24      -0.302000
      2 C2           9.2940    49.4340    73.3540 ca         1 I24       0.415300
      3 N3           9.3880    49.6310    74.6710 nb         1 I24      -0.318000
      4 C4           8.6940    50.6230    75.2270 ca         1 I24       0.476900
      5 C5           7.8860    51.0870    73.0510 ca         1 I24       0.158500
      6 C6           7.8710    51.4130    74.3940 ca         1 I24      -0.129600
      7 N7           7.0440    52.4820    74.6290 nc         1 I24      -0.538100
      8 C8           6.5770    52.7860    73.4550 cd         1 I24       0.395700
      9 N9           7.0510    51.9810    72.4560 na         1 I24      -0.284300
     10 N10          8.7980    50.8570    76.5340 nu         1 I24      -0.903100
     11 O11         10.0530    48.4220    72.9390 os         1 I24      -0.442300
     12 C12          9.5790    50.0740    77.4590 c3         1 I24       0.228800
     13 C13          9.7790    50.8810    78.7340 c3         1 I24       0.149800
     14 N14          8.5320    51.4340    79.2190 n3         1 I24      -0.740600
     15 C15          7.6300    50.4350    79.7640 c6         1 I24       0.130300
     16 C16          6.3130    51.0840    80.1440 c6         1 I24       0.152600
     17 O17          6.4970    52.1410    81.0600 os         1 I24      -0.449000
     18 C18          7.3800    53.1110    80.5410 c6         1 I24       0.152600
     19 C19          8.7220    52.5080    80.1750 c6         1 I24       0.130300
     20 C20          9.9830    48.0040    71.5750 c3         1 I24       0.175600
     21 C21          8.8080    47.0810    71.3120 c3         1 I24      -0.109400
     22 C22          8.8390    46.5330    69.8900 c3         1 I24      -0.073400
     23 C23          7.7100    45.5480    69.6250 c3         1 I24      -0.090100
     24 C24          6.7490    52.0700    71.0420 c3         1 I24       0.151900
     25 C25          6.0770    50.8290    70.5270 ca         1 I24      -0.195300
     26 C26          4.7990    50.4810    70.9430 ca         1 I24       0.225500
     27 C27          4.1350    49.3550    70.5040 ca         1 I24      -0.175000
     28 C28          4.7790    48.5310    69.5920 ca         1 I24      -0.048000
     29 C29          6.0550    48.8300    69.1410 ca         1 I24      -0.175000
     30 C30          6.6770    49.9660    69.6240 ca         1 I24       0.225500
     31 F31          4.1910    51.2950    71.8170 f          1 I24      -0.168500
     32 F32          7.9100    50.2500    69.1880 f          1 I24      -0.168500
     33 H10          8.2070    51.5640    76.9500 hn         1 I24       0.534000
     34 H8           5.8870    53.5900    73.2430 h5         1 I24       0.065800
     35 H241         6.1100    52.9410    70.9000 h1         1 I24       0.073200
     36 H242         7.6700    52.2670    70.4970 h1         1 I24       0.073200
     37 H121         9.0950    49.1140    77.6700 h1         1 I24       0.057700
     38 H122        10.5530    49.8410    77.0280 h1         1 I24       0.057700
     39 H201         9.9520    48.8680    70.9080 h1         1 I24       0.062200
     40 H202        10.9210    47.4760    71.4020 h1         1 I24       0.062200
     41 H131        10.2850    50.2480    79.4790 h1         1 I24       0.044200
     42 H132        10.4530    51.7140    78.5160 h1         1 I24       0.044200
     43 H151         7.4330    49.6610    79.0200 h1         1 I24       0.042950
     44 H152         8.0680    49.9340    80.6440 h1         1 I24       0.042950
     45 H191         9.2360    52.1610    81.0880 h1         1 I24       0.042950
     46 H192         9.3470    53.2850    79.7280 h1         1 I24       0.042950
     47 H161         5.8140    51.4450    79.2330 h1         1 I24       0.052700
     48 H162         5.6580    50.3520    80.6180 h1         1 I24       0.052700
     49 H181         6.9460    53.5880    79.6510 h1         1 I24       0.052700
     50 H182         7.5070    53.8790    81.3060 h1         1 I24       0.052700
     51 H211         8.8340    46.2500    72.0230 hc         1 I24       0.054700
     52 H212         7.8690    47.6170    71.4770 hc         1 I24       0.054700
     53 H221         8.7850    47.3620    69.1780 hc         1 I24       0.037700
     54 H222         9.7990    46.0410    69.7090 hc         1 I24       0.037700
     55 H231         7.7790    44.6840    70.2900 hc         1 I24       0.032033
     56 H232         6.7350    46.0100    69.7900 hc         1 I24       0.032033
     57 H233         7.7340    45.1780    68.6000 hc         1 I24       0.032033
     58 H27          3.1390    49.1330    70.8590 ha         1 I24       0.139000
     59 H28          4.2770    47.6460    69.2270 ha         1 I24       0.123000
     60 H29          6.5610    48.1960    68.4260 ha         1 I24       0.139000
@<TRIPOS>BOND
     1     1     2 ar  
     2     1     5 ar  
     3     2     3 ar  
     4     2    11 1   
     5     3     4 ar  
     6     4     6 ar  
     7     4    10 1   
     8     5     6 ar  
     9     5     9 1   
    10     6     7 1   
    11     7     8 2   
    12     8     9 1   
    13     8    34 1   
    14     9    24 1   
    15    10    12 1   
    16    10    33 1   
    17    11    20 1   
    18    12    13 1   
    19    12    37 1   
    20    12    38 1   
    21    13    14 1   
    22    13    41 1   
    23    13    42 1   
    24    14    15 1   
    25    14    19 1   
    26    15    16 1   
    27    15    43 1   
    28    15    44 1   
    29    16    17 1   
    30    16    47 1   
    31    16    48 1   
    32    17    18 1   
    33    18    19 1   
    34    18    49 1   
    35    18    50 1   
    36    19    45 1   
    37    19    46 1   
    38    20    21 1   
    39    20    39 1   
    40    20    40 1   
    41    21    22 1   
    42    21    51 1   
    43    21    52 1   
    44    22    23 1   
    45    22    53 1   
    46    22    54 1   
    47    23    55 1   
    48    23    56 1   
    49    23    57 1   
    50    24    25 1   
    51    24    35 1   
    52    24    36 1   
    53    25    26 ar  
    54    25    30 ar  
    55    26    27 ar  
    56    26    31 1   
    57    27    28 ar  
    58    27    58 1   
    59    28    29 ar  
    60    28    59 1   
    61    29    30 ar  
    62    29    60 1   
    63    30    32 1   
@<TRIPOS>SUBSTRUCTURE
     1 I24         1 TEMP              0 ****  ****    0 ROOT
