@<TRIPOS>MOLECULE
I25
   64    65     1     0     0
SMALL
No Charge or Current Charge


@<TRIPOS>ATOM
      1 O17          2.2720     2.1620    -2.4020 o          1 I25      -0.704000
      2 C15          1.9090     1.1540    -1.8080 c          1 I25       0.711000
      3 O16          1.6770     0.0940    -2.3810 o          1 I25      -0.704000
      4 C13          1.7400     1.2390    -0.2340 c3         1 I25       0.094800
      5 N14          2.3960     0.1330     0.5440 nu         1 I25      -0.913200
      6 C1           3.7290    -0.2650     0.4460 ca         1 I25       0.386000
      7 C6           4.0710    -1.5860     0.7570 ca         1 I25      -0.208000
      8 C4           5.4050    -2.0170     0.6730 ca         1 I25      -0.030500
      9 C3           6.4290    -1.1200     0.2910 ca         1 I25      -0.252900
     10 C18          7.8410    -1.5960     0.1730 ce         1 I25       0.683800
     11 N20          8.1640    -2.8200     0.1070 n2         1 I25      -0.855100
     12 N19          8.8210    -0.6790     0.2770 nv         1 I25      -1.073200
     13 C5           6.0710     0.2090    -0.0370 ca         1 I25      -0.030500
     14 C2           4.7340     0.6310     0.0490 ca         1 I25      -0.208000
     15 C11          0.2620     1.3560     0.1480 ca         1 I25       0.001700
     16 C8          -0.6280     0.2850    -0.0660 ca         1 I25      -0.137000
     17 C9          -0.2260     2.5450     0.7260 ca         1 I25      -0.130000
     18 C10         -1.5810     2.6670     1.0850 ca         1 I25      -0.059300
     19 C21         -2.0970     3.9600     1.7040 c3         1 I25      -0.025100
     20 C22         -2.6760     4.9190     0.6480 c3         1 I25      -0.085100
     21 C12         -2.4580     1.5900     0.8640 ca         1 I25      -0.216000
     22 C7          -1.9810     0.3940     0.2860 ca         1 I25       0.134100
     23 O23         -2.7980    -0.6910     0.0480 os         1 I25      -0.353100
     24 C24         -4.2030    -0.6810     0.3750 c3         1 I25       0.176600
     25 C25         -4.8400    -2.0490    -0.0130 c3         1 I25      -0.041000
     26 C26         -4.6750    -2.3040    -1.5380 c3         1 I25      -0.080100
     27 C27         -4.1320    -3.2020     0.7570 c3         1 I25      -0.080100
     28 C28         -6.3410    -2.0400     0.4300 c3         1 I25       0.177800
     29 N29         -7.2020    -0.9470    -0.1090 n3         1 I25      -0.735600
     30 C31         -7.8560    -1.2760    -1.4000 c3         1 I25       0.164600
     31 C30         -8.1910    -0.4690     0.8840 c3         1 I25       0.164600
     32 H13          2.2260     2.1800     0.0570 h1         1 I25       0.055700
     33 H14          1.7720    -0.5960     0.8900 hn         1 I25       0.469000
     34 H6           3.3010    -2.2890     1.0620 ha         1 I25       0.117500
     35 H2           4.4850     1.6580    -0.1970 ha         1 I25       0.117500
     36 H4           5.6410    -3.0520     0.9150 ha         1 I25       0.105000
     37 H5           6.8220     0.9230    -0.3700 ha         1 I25       0.105000
     38 H20          9.1620    -2.8710    -0.1190 hn         1 I25       0.346400
     39 H191         8.5220     0.2160     0.6430 hn         1 I25       0.446500
     40 H192         9.7100    -1.0160     0.6240 hn         1 I25       0.446500
     41 H8          -0.2700    -0.6390    -0.5130 ha         1 I25       0.143000
     42 H9           0.4510     3.3790     0.8950 ha         1 I25       0.111000
     43 H211        -2.8730     3.7390     2.4480 hc         1 I25       0.033700
     44 H212        -1.2920     4.4720     2.2460 hc         1 I25       0.033700
     45 H12         -3.5020     1.7010     1.1420 ha         1 I25       0.098000
     46 H221        -1.9110     5.1890    -0.0890 hc         1 I25       0.030700
     47 H222        -3.5160     4.4510     0.1200 hc         1 I25       0.030700
     48 H223        -3.0380     5.8390     1.1230 hc         1 I25       0.030700
     49 H241        -4.3420    -0.5080     1.4500 h1         1 I25       0.034700
     50 H242        -4.7110     0.1270    -0.1690 h1         1 I25       0.034700
     51 H261        -3.6290    -2.5130    -1.7920 hc         1 I25       0.037200
     52 H262        -5.2750    -3.1640    -1.8600 hc         1 I25       0.037200
     53 H263        -4.9770    -1.4260    -2.1210 hc         1 I25       0.037200
     54 H271        -4.1870    -3.0410     1.8410 hc         1 I25       0.037200
     55 H272        -4.6040    -4.1660     0.5340 hc         1 I25       0.037200
     56 H273        -3.0730    -3.2780     0.4820 hc         1 I25       0.037200
     57 H281        -6.7900    -3.0150     0.1940 h1         1 I25       0.029200
     58 H282        -6.3350    -1.9740     1.5270 h1         1 I25       0.029200
     59 H311        -8.5490    -2.1190    -1.2790 h1         1 I25       0.026033
     60 H312        -8.4300    -0.4150    -1.7690 h1         1 I25       0.026033
     61 H313        -7.1320    -1.5420    -2.1760 h1         1 I25       0.026033
     62 H301        -7.6890    -0.1320     1.8010 h1         1 I25       0.026033
     63 H302        -8.7640     0.3790     0.4840 h1         1 I25       0.026033
     64 H303        -8.8970    -1.2680     1.1490 h1         1 I25       0.026033
@<TRIPOS>BOND
     1     1     2 1   
     2     2     3 1   
     3     2     4 1   
     4     4     5 1   
     5     4    15 1   
     6     4    32 1   
     7     5     6 1   
     8     5    33 1   
     9     6     7 ar  
    10     6    14 ar  
    11     7     8 ar  
    12     7    34 1   
    13     8     9 ar  
    14     8    36 1   
    15     9    10 1   
    16     9    13 ar  
    17    10    11 2   
    18    10    12 1   
    19    11    38 1   
    20    12    39 1   
    21    12    40 1   
    22    13    14 ar  
    23    13    37 1   
    24    14    35 1   
    25    15    16 ar  
    26    15    17 ar  
    27    16    22 ar  
    28    16    41 1   
    29    17    18 ar  
    30    17    42 1   
    31    18    19 1   
    32    18    21 ar  
    33    19    20 1   
    34    19    43 1   
    35    19    44 1   
    36    20    46 1   
    37    20    47 1   
    38    20    48 1   
    39    21    22 ar  
    40    21    45 1   
    41    22    23 1   
    42    23    24 1   
    43    24    25 1   
    44    24    49 1   
    45    24    50 1   
    46    25    26 1   
    47    25    27 1   
    48    25    28 1   
    49    26    51 1   
    50    26    52 1   
    51    26    53 1   
    52    27    54 1   
    53    27    55 1   
    54    27    56 1   
    55    28    29 1   
    56    28    57 1   
    57    28    58 1   
    58    29    30 1   
    59    29    31 1   
    60    30    59 1   
    61    30    60 1   
    62    30    61 1   
    63    31    62 1   
    64    31    63 1   
    65    31    64 1   
@<TRIPOS>SUBSTRUCTURE
     1 I25         1 TEMP              0 ****  ****    0 ROOT
