@<TRIPOS>MOLECULE
I25
   64    65     1     0     0
SMALL
abcg2


@<TRIPOS>ATOM
      1 O17          1.8120     2.1930    -2.2460 o          1 I25      -0.704000
      2 C15          1.8220     1.0760    -1.6990 c          1 I25       0.711000
      3 O16          1.8690    -0.0420    -2.2370 o          1 I25      -0.704000
      4 C13          1.7110     1.1010    -0.1430 c3         1 I25       0.094800
      5 N14          2.2800    -0.0520     0.5120 nu         1 I25      -0.913200
      6 C1           3.5970    -0.3740     0.3940 ca         1 I25       0.386000
      7 C6           4.0580    -1.6270     0.8420 ca         1 I25      -0.208000
      8 C4           5.3940    -1.9540     0.7920 ca         1 I25      -0.030500
      9 C3           6.3500    -1.0560     0.3070 ca         1 I25      -0.252900
     10 C18          7.7800    -1.4390     0.2760 ce         1 I25       0.683800
     11 N20          8.1000    -2.6780     0.3160 n2         1 I25      -0.855100
     12 N19          8.6650    -0.3990     0.1570 nv         1 I25      -1.073200
     13 C5           5.8930     0.1790    -0.1480 ca         1 I25      -0.030500
     14 C2           4.5510     0.5210    -0.1150 ca         1 I25      -0.208000
     15 C11          0.2530     1.2320     0.2200 ca         1 I25       0.001700
     16 C8          -0.6280     0.1930    -0.0430 ca         1 I25      -0.137000
     17 C9          -0.2250     2.4030     0.8030 ca         1 I25      -0.130000
     18 C10         -1.5650     2.5380     1.1370 ca         1 I25      -0.059300
     19 C21         -2.0850     3.8160     1.7360 c3         1 I25      -0.025100
     20 C22         -2.8630     4.6570     0.7260 c3         1 I25      -0.085100
     21 C12         -2.4430     1.4820     0.8870 ca         1 I25      -0.216000
     22 C7          -1.9760     0.3110     0.2980 ca         1 I25       0.134100
     23 O23         -2.7470    -0.7560     0.0190 os         1 I25      -0.353100
     24 C24         -4.1220    -0.7280     0.3580 c3         1 I25       0.176600
     25 C25         -4.7720    -2.0350    -0.0780 c3         1 I25      -0.041000
     26 C26         -4.6520    -2.2110    -1.5910 c3         1 I25      -0.080100
     27 C27         -4.1330    -3.2250     0.6390 c3         1 I25      -0.080100
     28 C28         -6.2530    -1.9770     0.3350 c3         1 I25       0.177800
     29 N29         -7.0000    -0.8790    -0.2650 n3         1 I25      -0.735600
     30 C31         -7.9670    -1.3140    -1.2490 c3         1 I25       0.164600
     31 C30         -7.5960     0.0080     0.7080 c3         1 I25       0.164600
     32 H13          2.2230     1.9970     0.2220 h1         1 I25       0.055700
     33 H14          1.6580    -0.8290     0.6700 hn         1 I25       0.469000
     34 H6           3.3460    -2.3430     1.2370 ha         1 I25       0.117500
     35 H2           4.2560     1.4880    -0.4980 ha         1 I25       0.117500
     36 H4           5.7150    -2.9250     1.1470 ha         1 I25       0.105000
     37 H5           6.5840     0.9000    -0.5670 ha         1 I25       0.105000
     38 H20          9.1100    -2.7920     0.3310 hn         1 I25       0.346400
     39 H191         8.4040     0.4880     0.5550 hn         1 I25       0.446500
     40 H192         9.6400    -0.6160     0.2890 hn         1 I25       0.446500
     41 H8          -0.2860    -0.7180    -0.5210 ha         1 I25       0.143000
     42 H9           0.4630     3.2160     1.0070 ha         1 I25       0.111000
     43 H211        -2.7310     3.5900     2.5880 hc         1 I25       0.033700
     44 H212        -1.2480     4.3990     2.1280 hc         1 I25       0.033700
     45 H12         -3.4860     1.5950     1.1590 ha         1 I25       0.098000
     46 H221        -2.2480     4.9040    -0.1400 hc         1 I25       0.030700
     47 H222        -3.7450     4.1240     0.3660 hc         1 I25       0.030700
     48 H223        -3.2000     5.5910     1.1760 hc         1 I25       0.030700
     49 H241        -4.2370    -0.5950     1.4430 h1         1 I25       0.034700
     50 H242        -4.6230     0.1100    -0.1400 h1         1 I25       0.034700
     51 H261        -3.6110    -2.3120    -1.9030 hc         1 I25       0.037200
     52 H262        -5.1800    -3.1110    -1.9140 hc         1 I25       0.037200
     53 H263        -5.0790    -1.3600    -2.1230 hc         1 I25       0.037200
     54 H271        -4.2190    -3.1320     1.7240 hc         1 I25       0.037200
     55 H272        -4.6250    -4.1550     0.3460 hc         1 I25       0.037200
     56 H273        -3.0750    -3.3230     0.3940 hc         1 I25       0.037200
     57 H281        -6.7110    -2.9420     0.0790 h1         1 I25       0.029200
     58 H282        -6.3080    -1.9080     1.4280 h1         1 I25       0.029200
     59 H311        -8.7870    -1.9120    -0.8210 h1         1 I25       0.026033
     60 H312        -8.4120    -0.4480    -1.7420 h1         1 I25       0.026033
     61 H313        -7.4850    -1.9170    -2.0180 h1         1 I25       0.026033
     62 H301        -6.8340     0.4100     1.3780 h1         1 I25       0.026033
     63 H302        -8.0630     0.8550     0.2010 h1         1 I25       0.026033
     64 H303        -8.3680    -0.4730     1.3300 h1         1 I25       0.026033
@<TRIPOS>BOND
     1     1     2 1   
     2     2     3 1   
     3     2     4 1   
     4     4     5 1   
     5     4    15 1   
     6     4    32 1   
     7     5     6 1   
     8     5    33 1   
     9     6     7 ar  
    10     6    14 ar  
    11     7     8 ar  
    12     7    34 1   
    13     8     9 ar  
    14     8    36 1   
    15     9    10 1   
    16     9    13 ar  
    17    10    11 2   
    18    10    12 1   
    19    11    38 1   
    20    12    39 1   
    21    12    40 1   
    22    13    14 ar  
    23    13    37 1   
    24    14    35 1   
    25    15    16 ar  
    26    15    17 ar  
    27    16    22 ar  
    28    16    41 1   
    29    17    18 ar  
    30    17    42 1   
    31    18    19 1   
    32    18    21 ar  
    33    19    20 1   
    34    19    43 1   
    35    19    44 1   
    36    20    46 1   
    37    20    47 1   
    38    20    48 1   
    39    21    22 ar  
    40    21    45 1   
    41    22    23 1   
    42    23    24 1   
    43    24    25 1   
    44    24    49 1   
    45    24    50 1   
    46    25    26 1   
    47    25    27 1   
    48    25    28 1   
    49    26    51 1   
    50    26    52 1   
    51    26    53 1   
    52    27    54 1   
    53    27    55 1   
    54    27    56 1   
    55    28    29 1   
    56    28    57 1   
    57    28    58 1   
    58    29    30 1   
    59    29    31 1   
    60    30    59 1   
    61    30    60 1   
    62    30    61 1   
    63    31    62 1   
    64    31    63 1   
    65    31    64 1   
@<TRIPOS>SUBSTRUCTURE
     1 I25         1 TEMP              0 ****  ****    0 ROOT
