@<TRIPOS>MOLECULE
I26
   64    65     1     0     0
SMALL
abcg2


@<TRIPOS>ATOM
      1 O17         -2.8410     1.2750    -2.4940 o          1 I26      -0.704000
      2 C15         -2.1220     0.2790    -2.3200 c          1 I26       0.709000
      3 O16         -1.7150    -0.5350    -3.1690 o          1 I26      -0.704000
      4 C13         -1.6170     0.0150    -0.8680 c3         1 I26       0.093800
      5 N14         -2.4200     0.6200     0.1670 nu         1 I26      -0.909200
      6 C1          -3.7210     0.2580     0.3630 ca         1 I26       0.382000
      7 C6          -4.5480     1.0430     1.1880 ca         1 I26      -0.204000
      8 C4          -5.8460     0.6700     1.4560 ca         1 I26      -0.032000
      9 C3          -6.3910    -0.5060     0.9340 ca         1 I26      -0.248900
     10 C18         -7.7900    -0.8780     1.2490 ce         1 I26       0.681800
     11 N20         -8.1050    -2.1990     1.0580 nv         1 I26      -1.071200
     12 N19         -8.6100     0.0310     1.6250 n2         1 I26      -0.853100
     13 C5          -5.5770    -1.2770     0.1070 ca         1 I26      -0.032000
     14 C2          -4.2740    -0.9090    -0.1840 ca         1 I26      -0.204000
     15 C11         -0.2020     0.5260    -0.7590 ca         1 I26      -0.032300
     16 C8           0.8470    -0.3010    -0.4210 ca         1 I26       0.142000
     17 C9           0.0830     1.8720    -1.0020 ca         1 I26      -0.108000
     18 C10          1.3720     2.3670    -0.9010 ca         1 I26      -0.072300
     19 C21          1.6540     3.8300    -1.1130 c3         1 I26      -0.026100
     20 C22          1.4970     4.6340     0.1770 c3         1 I26      -0.085100
     21 C12          2.4120     1.5010    -0.5570 ca         1 I26      -0.193000
     22 C7           2.1630     0.1560    -0.3180 ca         1 I26       0.093100
     23 O23          3.0840    -0.7620     0.0070 os         1 I26      -0.339100
     24 C24          4.4430    -0.3630     0.0740 c3         1 I26       0.173600
     25 C25          5.3100    -1.5690     0.4160 c3         1 I26      -0.040000
     26 C26          4.9170    -2.1380     1.7780 c3         1 I26      -0.080600
     27 C27          5.1860    -2.6460    -0.6610 c3         1 I26      -0.080600
     28 C28          6.7720    -1.0850     0.4330 c3         1 I26       0.176800
     29 N29          7.0470    -0.0490     1.4190 n3         1 I26      -0.736600
     30 C31          7.9080    -0.4940     2.4910 c3         1 I26       0.164100
     31 C30          7.5250     1.1880     0.8420 c3         1 I26       0.164100
     32 F20          0.6310    -1.6070    -0.1760 f          1 I26      -0.175000
     33 H13         -1.6150    -1.0660    -0.7090 h1         1 I26       0.071700
     34 H14         -2.2090     1.5820     0.3820 hn         1 I26       0.465000
     35 H6          -4.1530     1.9530     1.6240 ha         1 I26       0.117000
     36 H2          -3.6980    -1.5380    -0.8480 ha         1 I26       0.117000
     37 H4          -6.4560     1.2960     2.0950 ha         1 I26       0.105500
     38 H5          -5.9590    -2.1790    -0.3550 ha         1 I26       0.105500
     39 H19         -9.5190    -0.3660     1.8480 hn         1 I26       0.346400
     40 H201        -7.3740    -2.8780     1.1960 hn         1 I26       0.446000
     41 H202        -8.9960    -2.5070     1.4140 hn         1 I26       0.446000
     42 H9          -0.7240     2.5360    -1.2940 ha         1 I26       0.141000
     43 H211         2.6680     3.9580    -1.4970 hc         1 I26       0.041700
     44 H212         0.9790     4.2280    -1.8730 hc         1 I26       0.041700
     45 H12          3.4180     1.8950    -0.4840 ha         1 I26       0.102000
     46 H221         1.7130     5.6890     0.0070 hc         1 I26       0.028367
     47 H222         0.4800     4.5570     0.5660 hc         1 I26       0.028367
     48 H223         2.1760     4.2730     0.9500 hc         1 I26       0.028367
     49 H241         4.7550     0.0600    -0.8910 h1         1 I26       0.036700
     50 H242         4.5740     0.4090     0.8410 h1         1 I26       0.036700
     51 H261         3.8930    -2.5110     1.7760 hc         1 I26       0.037867
     52 H262         5.5670    -2.9710     2.0520 hc         1 I26       0.037867
     53 H263         4.9970    -1.3800     2.5590 hc         1 I26       0.037867
     54 H271         5.4650    -2.2610    -1.6450 hc         1 I26       0.037867
     55 H272         5.8440    -3.4880    -0.4360 hc         1 I26       0.037867
     56 H273         4.1700    -3.0350    -0.7310 hc         1 I26       0.037867
     57 H281         7.4180    -1.9560     0.5980 h1         1 I26       0.031200
     58 H282         7.0240    -0.7220    -0.5710 h1         1 I26       0.031200
     59 H311         8.9380    -0.7080     2.1620 h1         1 I26       0.026200
     60 H312         7.9630     0.2690     3.2700 h1         1 I26       0.026200
     61 H313         7.5120    -1.4000     2.9500 h1         1 I26       0.026200
     62 H301         6.8440     1.5400     0.0670 h1         1 I26       0.026200
     63 H302         7.5720     1.9630     1.6090 h1         1 I26       0.026200
     64 H303         8.5270     1.1060     0.3910 h1         1 I26       0.026200
@<TRIPOS>BOND
     1     1     2 1   
     2     2     3 1   
     3     2     4 1   
     4     4     5 1   
     5     4    15 1   
     6     4    33 1   
     7     5     6 1   
     8     5    34 1   
     9     6     7 ar  
    10     6    14 ar  
    11     7     8 ar  
    12     7    35 1   
    13     8     9 ar  
    14     8    37 1   
    15     9    10 1   
    16     9    13 ar  
    17    10    11 1   
    18    10    12 2   
    19    11    40 1   
    20    11    41 1   
    21    12    39 1   
    22    13    14 ar  
    23    13    38 1   
    24    14    36 1   
    25    15    16 ar  
    26    15    17 ar  
    27    16    22 ar  
    28    16    32 1   
    29    17    18 ar  
    30    17    42 1   
    31    18    19 1   
    32    18    21 ar  
    33    19    20 1   
    34    19    43 1   
    35    19    44 1   
    36    20    46 1   
    37    20    47 1   
    38    20    48 1   
    39    21    22 ar  
    40    21    45 1   
    41    22    23 1   
    42    23    24 1   
    43    24    25 1   
    44    24    49 1   
    45    24    50 1   
    46    25    26 1   
    47    25    27 1   
    48    25    28 1   
    49    26    51 1   
    50    26    52 1   
    51    26    53 1   
    52    27    54 1   
    53    27    55 1   
    54    27    56 1   
    55    28    29 1   
    56    28    57 1   
    57    28    58 1   
    58    29    30 1   
    59    29    31 1   
    60    30    59 1   
    61    30    60 1   
    62    30    61 1   
    63    31    62 1   
    64    31    63 1   
    65    31    64 1   
@<TRIPOS>SUBSTRUCTURE
     1 I26         1 TEMP              0 ****  ****    0 ROOT
