@<TRIPOS>MOLECULE
I26
   64    65     1     0     0
SMALL
No Charge or Current Charge


@<TRIPOS>ATOM
      1 O17         -2.5150     0.8640    -2.7280 o          1 I26      -0.704000
      2 C15         -2.1590    -0.2030    -2.2390 c          1 I26       0.709000
      3 O16         -2.1740    -1.2570    -2.8640 o          1 I26      -0.704000
      4 C13         -1.6470    -0.2350    -0.7410 c3         1 I26       0.093800
      5 N14         -2.5630     0.4110     0.2630 nu         1 I26      -0.909200
      6 C1          -3.9190     0.1370     0.4370 ca         1 I26       0.382000
      7 C6          -4.7520     1.1310     0.9640 ca         1 I26      -0.204000
      8 C4          -6.1230     0.8870     1.1560 ca         1 I26      -0.032000
      9 C3          -6.6810    -0.3730     0.8390 ca         1 I26      -0.248900
     10 C18         -8.1460    -0.6130     1.0160 ce         1 I26       0.681800
     11 N20         -8.5590    -1.8860     1.1610 nv         1 I26      -1.071200
     12 N19         -8.9950     0.3180     1.1590 n2         1 I26      -0.853100
     13 C5          -5.8340    -1.3650     0.2910 ca         1 I26      -0.032000
     14 C2          -4.4650    -1.1110     0.1020 ca         1 I26      -0.204000
     15 C11         -0.2380     0.3620    -0.6410 ca         1 I26      -0.032300
     16 C8           0.8900    -0.4590    -0.4190 ca         1 I26       0.142000
     17 C9          -0.0490     1.7530    -0.7830 ca         1 I26      -0.108000
     18 C10          1.2350     2.3220    -0.6980 ca         1 I26      -0.072300
     19 C21          1.4180     3.8270    -0.8470 c3         1 I26      -0.026100
     20 C22          1.3690     4.5540     0.5090 c3         1 I26      -0.085100
     21 C12          2.3490     1.4960    -0.4670 ca         1 I26      -0.193000
     22 C7           2.1840     0.1000    -0.3290 ca         1 I26       0.093100
     23 O23          3.2570    -0.7450    -0.1060 os         1 I26      -0.339100
     24 C24          4.6110    -0.2630     0.0010 c3         1 I26       0.173600
     25 C25          5.5730    -1.4630     0.2510 c3         1 I26      -0.040000
     26 C26          5.1860    -2.1940     1.5670 c3         1 I26      -0.080600
     27 C27          5.4700    -2.4790    -0.9230 c3         1 I26      -0.080600
     28 C28          7.0420    -0.9230     0.2790 c3         1 I26       0.176800
     29 N29          7.3520     0.1490     1.2690 n3         1 I26      -0.736600
     30 C31          7.7910    -0.3590     2.5920 c3         1 I26       0.164100
     31 C30          8.3090     1.1460     0.7370 c3         1 I26       0.164100
     32 F20          0.7390    -1.8010    -0.2910 f          1 I26      -0.175000
     33 H13         -1.5850    -1.3010    -0.4870 h1         1 I26       0.071700
     34 H14         -2.2800     1.3300     0.5980 hn         1 I26       0.465000
     35 H6          -4.3420     2.1030     1.2230 ha         1 I26       0.117000
     36 H2          -3.8340    -1.8930    -0.3090 ha         1 I26       0.117000
     37 H4          -6.7470     1.6800     1.5620 ha         1 I26       0.105500
     38 H5          -6.2280    -2.3360    -0.0000 ha         1 I26       0.105500
     39 H19         -9.9310    -0.0980     1.1090 hn         1 I26       0.346400
     40 H201        -7.8190    -2.5490     1.3570 hn         1 I26       0.446000
     41 H202        -9.4130    -2.0200     1.6880 hn         1 I26       0.446000
     42 H9          -0.9070     2.3970    -0.9660 ha         1 I26       0.141000
     43 H211         2.3760     4.0460    -1.3340 hc         1 I26       0.041700
     44 H212         0.6410     4.2420    -1.5010 hc         1 I26       0.041700
     45 H12          3.3320     1.9530    -0.4000 ha         1 I26       0.102000
     46 H221         1.5030     5.6330     0.3700 hc         1 I26       0.028367
     47 H222         0.4040     4.3870     1.0030 hc         1 I26       0.028367
     48 H223         2.1640     4.1910     1.1710 hc         1 I26       0.028367
     49 H241         4.9060     0.2520    -0.9230 h1         1 I26       0.036700
     50 H242         4.6930     0.4510     0.8310 h1         1 I26       0.036700
     51 H261         4.2420    -2.7400     1.4520 hc         1 I26       0.037867
     52 H262         5.9570    -2.9190     1.8570 hc         1 I26       0.037867
     53 H263         5.0460    -1.4830     2.3890 hc         1 I26       0.037867
     54 H271         5.6950    -1.9950    -1.8820 hc         1 I26       0.037867
     55 H272         6.1800    -3.3050    -0.7880 hc         1 I26       0.037867
     56 H273         4.4650    -2.9130    -0.9940 hc         1 I26       0.037867
     57 H281         7.7310    -1.7680     0.4200 h1         1 I26       0.031200
     58 H282         7.2460    -0.5400    -0.7310 h1         1 I26       0.031200
     59 H311         8.7360    -0.9120     2.5010 h1         1 I26       0.026200
     60 H312         7.9510     0.4740     3.2900 h1         1 I26       0.026200
     61 H313         7.0520    -1.0280     3.0460 h1         1 I26       0.026200
     62 H301         7.9290     1.5920    -0.1910 h1         1 I26       0.026200
     63 H302         8.4660     1.9580     1.4600 h1         1 I26       0.026200
     64 H303         9.2810     0.6810     0.5250 h1         1 I26       0.026200
@<TRIPOS>BOND
     1     1     2 1   
     2     2     3 1   
     3     2     4 1   
     4     4     5 1   
     5     4    15 1   
     6     4    33 1   
     7     5     6 1   
     8     5    34 1   
     9     6     7 ar  
    10     6    14 ar  
    11     7     8 ar  
    12     7    35 1   
    13     8     9 ar  
    14     8    37 1   
    15     9    10 1   
    16     9    13 ar  
    17    10    11 1   
    18    10    12 2   
    19    11    40 1   
    20    11    41 1   
    21    12    39 1   
    22    13    14 ar  
    23    13    38 1   
    24    14    36 1   
    25    15    16 ar  
    26    15    17 ar  
    27    16    22 ar  
    28    16    32 1   
    29    17    18 ar  
    30    17    42 1   
    31    18    19 1   
    32    18    21 ar  
    33    19    20 1   
    34    19    43 1   
    35    19    44 1   
    36    20    46 1   
    37    20    47 1   
    38    20    48 1   
    39    21    22 ar  
    40    21    45 1   
    41    22    23 1   
    42    23    24 1   
    43    24    25 1   
    44    24    49 1   
    45    24    50 1   
    46    25    26 1   
    47    25    27 1   
    48    25    28 1   
    49    26    51 1   
    50    26    52 1   
    51    26    53 1   
    52    27    54 1   
    53    27    55 1   
    54    27    56 1   
    55    28    29 1   
    56    28    57 1   
    57    28    58 1   
    58    29    30 1   
    59    29    31 1   
    60    30    59 1   
    61    30    60 1   
    62    30    61 1   
    63    31    62 1   
    64    31    63 1   
    65    31    64 1   
@<TRIPOS>SUBSTRUCTURE
     1 I26         1 TEMP              0 ****  ****    0 ROOT
