@<TRIPOS>MOLECULE
I28
   56    59     1     0     0
SMALL
No Charge or Current Charge


@<TRIPOS>ATOM
      1 O1           0.2990    -1.0110    -2.1440 o          1 I28      -0.500000
      2 C2          -0.3120    -0.9330    -1.0880 c          1 I28       0.659300
      3 C3          -0.6630     0.3420    -0.4130 cc         1 I28      -0.168400
      4 C4          -1.7840     0.5360     0.3980 cd         1 I28       0.143900
      5 C5          -3.0340    -0.2390     0.5820 ca         1 I28      -0.044800
      6 C6          -3.5070    -1.1590    -0.3810 ca         1 I28      -0.074000
      7 C7          -4.7070    -1.8620    -0.1740 ca         1 I28      -0.117000
      8 C8          -5.4610    -1.6430     0.9900 ca         1 I28      -0.094000
      9 C9          -5.0190    -0.7100     1.9400 ca         1 I28      -0.117000
     10 C10         -3.8190    -0.0070     1.7330 ca         1 I28      -0.074000
     11 O11         -1.8840     1.8570     0.7420 os         1 I28      -0.160200
     12 C12         -0.8440     2.5350     0.2010 ca         1 I28       0.016100
     13 C13         -0.5730     3.8930     0.3640 ca         1 I28      -0.064000
     14 C14          0.6200     4.3840    -0.1910 ca         1 I28      -0.125000
     15 C15          1.5270     3.5130    -0.8320 ca         1 I28       0.132100
     16 O16          2.6960     4.0580    -1.2860 oh         1 I28      -0.540100
     17 C17          1.2430     2.1210    -0.9680 ca         1 I28      -0.129300
     18 C18          2.3040     1.1530    -1.5070 c3         1 I28       0.219100
     19 N19          2.6790     0.1030    -0.5290 n3         1 I28      -0.715600
     20 C20          3.2560     0.6410     0.7350 c6         1 I28       0.164800
     21 C21          3.4790    -0.4830     1.7760 c6         1 I28      -0.073400
     22 C22          4.3730    -1.6120     1.2020 c6         1 I28      -0.063700
     23 C23          4.5660    -2.7680     2.2200 c3         1 I28      -0.084100
     24 C24          3.7750    -2.1170    -0.1350 c6         1 I28      -0.073400
     25 C25          3.5480    -0.9470    -1.1230 c6         1 I28       0.164800
     26 C26         -0.0160     1.6660    -0.4850 ca         1 I28      -0.017800
     27 O27         -0.7560    -2.0440    -0.4170 os         1 I28      -0.430100
     28 C28         -0.4640    -3.3370    -0.9670 c3         1 I28       0.165600
     29 C29         -1.0870    -4.3830    -0.0300 c3         1 I28      -0.097100
     30 H1          -2.9700    -1.3140    -1.3120 ha         1 I28       0.123000
     31 H2          -5.0580    -2.5680    -0.9230 ha         1 I28       0.116000
     32 H3          -6.3900    -2.1860     1.1480 ha         1 I28       0.115000
     33 H4          -5.6050    -0.5300     2.8380 ha         1 I28       0.116000
     34 H5          -3.4900     0.7100     2.4820 ha         1 I28       0.123000
     35 H6          -1.2550     4.5410     0.9100 ha         1 I28       0.135000
     36 H7           0.8650     5.4380    -0.0880 ha         1 I28       0.134000
     37 H8           3.2360     3.3570    -1.7040 ho         1 I28       0.468000
     38 H9           1.9290     0.7110    -2.4370 h1         1 I28       0.040700
     39 H10          3.2110     1.6980    -1.7960 h1         1 I28       0.040700
     40 H12          4.2140     1.1420     0.5330 h1         1 I28       0.032950
     41 H13          2.5860     1.3920     1.1800 h1         1 I28       0.032950
     42 H14          3.9370    -0.0600     2.6800 hc         1 I28       0.047200
     43 H15          2.5060    -0.8930     2.0790 hc         1 I28       0.047200
     44 H16          5.3730    -1.2000     1.0060 hc         1 I28       0.041700
     45 H17          3.6090    -3.2400     2.4750 hc         1 I28       0.032033
     46 H18          5.2250    -3.5450     1.8150 hc         1 I28       0.032033
     47 H19          5.0180    -2.4040     3.1500 hc         1 I28       0.032033
     48 H20          4.4430    -2.8590    -0.5930 hc         1 I28       0.047200
     49 H21          2.8190    -2.6260     0.0490 hc         1 I28       0.047200
     50 H22          3.0920    -1.3470    -2.0400 h1         1 I28       0.032950
     51 H23          4.5220    -0.5190    -1.4060 h1         1 I28       0.032950
     52 H24         -0.8970    -3.4430    -1.9710 h1         1 I28       0.044700
     53 H25          0.6200    -3.5000    -1.0320 h1         1 I28       0.044700
     54 H26         -0.6570    -4.3050     0.9760 hc         1 I28       0.046033
     55 H27         -2.1720    -4.2400     0.0410 hc         1 I28       0.046033
     56 H28         -0.8970    -5.3940    -0.4080 hc         1 I28       0.046033
@<TRIPOS>BOND
     1     1     2 2   
     2     2     3 1   
     3     2    27 1   
     4     3     4 2   
     5     3    26 1   
     6     4     5 1   
     7     4    11 1   
     8     5     6 ar  
     9     5    10 ar  
    10     6     7 ar  
    11     6    30 1   
    12     7     8 ar  
    13     7    31 1   
    14     8     9 ar  
    15     8    32 1   
    16     9    10 ar  
    17     9    33 1   
    18    10    34 1   
    19    11    12 1   
    20    12    13 ar  
    21    12    26 ar  
    22    13    14 ar  
    23    13    35 1   
    24    14    15 ar  
    25    14    36 1   
    26    15    16 1   
    27    15    17 ar  
    28    16    37 1   
    29    17    18 1   
    30    17    26 ar  
    31    18    19 1   
    32    18    38 1   
    33    18    39 1   
    34    19    20 1   
    35    19    25 1   
    36    20    21 1   
    37    20    40 1   
    38    20    41 1   
    39    21    22 1   
    40    21    42 1   
    41    21    43 1   
    42    22    23 1   
    43    22    24 1   
    44    22    44 1   
    45    23    45 1   
    46    23    46 1   
    47    23    47 1   
    48    24    25 1   
    49    24    48 1   
    50    24    49 1   
    51    25    50 1   
    52    25    51 1   
    53    27    28 1   
    54    28    29 1   
    55    28    52 1   
    56    28    53 1   
    57    29    54 1   
    58    29    55 1   
    59    29    56 1   
@<TRIPOS>SUBSTRUCTURE
     1 I28         1 TEMP              0 ****  ****    0 ROOT
