@<TRIPOS>MOLECULE
I28
   56    59     1     0     0
SMALL
abcg2


@<TRIPOS>ATOM
      1 O1           0.0490    -0.9040    -2.2750 o          1 I28      -0.500000
      2 C2          -0.2420    -0.7930    -1.1080 c          1 I28       0.659300
      3 C3          -0.6380     0.4830    -0.4850 cc         1 I28      -0.168400
      4 C4          -1.8330     0.7080     0.1310 cd         1 I28       0.143900
      5 C5          -2.9700    -0.1550     0.4310 ca         1 I28      -0.044800
      6 C6          -3.3770    -1.1390    -0.4710 ca         1 I28      -0.074000
      7 C7          -4.4460    -1.9670    -0.1680 ca         1 I28      -0.117000
      8 C8          -5.1270    -1.8190     1.0330 ca         1 I28      -0.094000
      9 C9          -4.7390    -0.8290     1.9270 ca         1 I28      -0.117000
     10 C10         -3.6690     0.0010     1.6300 ca         1 I28      -0.074000
     11 O11         -1.9500     2.0030     0.4970 os         1 I28      -0.160200
     12 C12         -0.8180     2.6370     0.1080 ca         1 I28       0.016100
     13 C13         -0.5310     3.9750     0.3020 ca         1 I28      -0.064000
     14 C14          0.6920     4.4100    -0.1630 ca         1 I28      -0.125000
     15 C15          1.6060     3.5290    -0.7700 ca         1 I28       0.132100
     16 O16          2.7770     4.0980    -1.1390 oh         1 I28      -0.540100
     17 C17          1.3180     2.1770    -0.9450 ca         1 I28      -0.129300
     18 C18          2.3080     1.1760    -1.4710 c3         1 I28       0.219100
     19 N19          2.4710     0.0660    -0.5520 n3         1 I28      -0.715600
     20 C20          3.0030     0.4920     0.7320 c6         1 I28       0.164800
     21 C21          3.0830    -0.6720     1.7040 c6         1 I28      -0.073400
     22 C22          3.9540    -1.7940     1.1500 c6         1 I28      -0.063700
     23 C23          4.0080    -2.9880     2.0930 c3         1 I28      -0.084100
     24 C24          3.4320    -2.1790    -0.2290 c6         1 I28      -0.073400
     25 C25          3.2990    -0.9720    -1.1440 c6         1 I28       0.164800
     26 C26          0.0500     1.7480    -0.5180 ca         1 I28      -0.017800
     27 O27         -0.3480    -1.8070    -0.2670 os         1 I28      -0.430100
     28 C28         -0.2240    -3.1330    -0.8010 c3         1 I28       0.165600
     29 C29         -0.3140    -4.1030     0.3500 c3         1 I28      -0.097100
     30 H1          -2.8880    -1.2400    -1.4310 ha         1 I28       0.123000
     31 H2          -4.7560    -2.7210    -0.8800 ha         1 I28       0.116000
     32 H3          -5.9620    -2.4660     1.2670 ha         1 I28       0.115000
     33 H4          -5.2680    -0.7060     2.8630 ha         1 I28       0.116000
     34 H5          -3.3710     0.7580     2.3430 ha         1 I28       0.123000
     35 H6          -1.2220     4.6480     0.7890 ha         1 I28       0.135000
     36 H7           0.9730     5.4490    -0.0480 ha         1 I28       0.134000
     37 H8           3.3270     3.4820    -1.6340 ho         1 I28       0.468000
     38 H9           1.9600     0.7800    -2.4280 h1         1 I28       0.040700
     39 H10          3.2850     1.6410    -1.6920 h1         1 I28       0.040700
     40 H12          4.0090     0.9370     0.6150 h1         1 I28       0.032950
     41 H13          2.3610     1.2720     1.1440 h1         1 I28       0.032950
     42 H14          3.4780    -0.3180     2.6600 hc         1 I28       0.047200
     43 H15          2.0740    -1.0520     1.8940 hc         1 I28       0.047200
     44 H16          4.9720    -1.4000     1.0300 hc         1 I28       0.041700
     45 H17          3.0110    -3.4060     2.2510 hc         1 I28       0.032033
     46 H18          4.6410    -3.7840     1.6970 hc         1 I28       0.032033
     47 H19          4.4040    -2.7030     3.0690 hc         1 I28       0.032033
     48 H20          4.0910    -2.9130    -0.7010 hc         1 I28       0.047200
     49 H21          2.4540    -2.6570    -0.1170 hc         1 I28       0.047200
     50 H22          2.8480    -1.2720    -2.0930 h1         1 I28       0.032950
     51 H23          4.3060    -0.5840    -1.3810 h1         1 I28       0.032950
     52 H24         -1.0240    -3.3080    -1.5240 h1         1 I28       0.044700
     53 H25          0.7270    -3.2350    -1.3260 h1         1 I28       0.044700
     54 H26          0.4960    -3.9550     1.0650 hc         1 I28       0.046033
     55 H27         -1.2630    -4.0140     0.8790 hc         1 I28       0.046033
     56 H28         -0.2390    -5.1200    -0.0330 hc         1 I28       0.046033
@<TRIPOS>BOND
     1     1     2 2   
     2     2     3 1   
     3     2    27 1   
     4     3     4 2   
     5     3    26 1   
     6     4     5 1   
     7     4    11 1   
     8     5     6 ar  
     9     5    10 ar  
    10     6     7 ar  
    11     6    30 1   
    12     7     8 ar  
    13     7    31 1   
    14     8     9 ar  
    15     8    32 1   
    16     9    10 ar  
    17     9    33 1   
    18    10    34 1   
    19    11    12 1   
    20    12    13 ar  
    21    12    26 ar  
    22    13    14 ar  
    23    13    35 1   
    24    14    15 ar  
    25    14    36 1   
    26    15    16 1   
    27    15    17 ar  
    28    16    37 1   
    29    17    18 1   
    30    17    26 ar  
    31    18    19 1   
    32    18    38 1   
    33    18    39 1   
    34    19    20 1   
    35    19    25 1   
    36    20    21 1   
    37    20    40 1   
    38    20    41 1   
    39    21    22 1   
    40    21    42 1   
    41    21    43 1   
    42    22    23 1   
    43    22    24 1   
    44    22    44 1   
    45    23    45 1   
    46    23    46 1   
    47    23    47 1   
    48    24    25 1   
    49    24    48 1   
    50    24    49 1   
    51    25    50 1   
    52    25    51 1   
    53    27    28 1   
    54    28    29 1   
    55    28    52 1   
    56    28    53 1   
    57    29    54 1   
    58    29    55 1   
    59    29    56 1   
@<TRIPOS>SUBSTRUCTURE
     1 I28         1 TEMP              0 ****  ****    0 ROOT
