@<TRIPOS>MOLECULE
I29
   71    74     1     0     0
SMALL
bcc


@<TRIPOS>ATOM
      1 N1          -1.7710     2.5740     0.2710 n          1 I29      -0.469300
      2 C5          -2.1600     1.5290     1.2650 c5         1 I29       0.162700
      3 C57         -1.9600     2.1300     2.6610 c3         1 I29      -0.092100
      4 C51         -1.4340     0.2120     1.0980 ca         1 I29      -0.078300
      5 C4          -3.7230     1.4610     0.9510 c5         1 I29       0.172500
      6 C47         -4.5870     1.1950     2.1830 c3         1 I29      -0.068100
      7 C41         -4.0550     0.4380    -0.1310 ca         1 I29      -0.081300
      8 N3          -4.0110     2.8010     0.4580 n2         1 I29      -0.622900
      9 C2          -2.9330     3.3230     0.0400 c2         1 I29       0.477900
     10 C21         -2.8750     4.6850    -0.5650 c3         1 I29      -0.123400
     11 C56         -1.0360    -0.5210     2.2120 ca         1 I29      -0.104000
     12 C55         -0.3800    -1.7390     2.0910 ca         1 I29      -0.128000
     13 C54         -0.1080    -2.2340     0.8310 ca         1 I29       0.030400
     14 CL5          0.7600    -3.7250     0.6590 cl         1 I29      -0.111400
     15 C53         -0.5130    -1.5440    -0.3010 ca         1 I29      -0.128000
     16 C52         -1.1740    -0.3390    -0.1590 ca         1 I29      -0.104000
     17 C42         -4.1780    -0.9130     0.1980 ca         1 I29      -0.104000
     18 C43         -4.4360    -1.8750    -0.7610 ca         1 I29      -0.126000
     19 C44         -4.5750    -1.4870    -2.0850 ca         1 I29       0.029400
     20 CL4         -4.8910    -2.6840    -3.3000 cl         1 I29      -0.114400
     21 C45         -4.4680    -0.1560    -2.4450 ca         1 I29      -0.126000
     22 C46         -4.2120     0.7960    -1.4660 ca         1 I29      -0.104000
     23 C10         -0.8050     2.5420    -0.7460 c          1 I29       0.808100
     24 O10         -1.1410     2.7750    -1.8990 o          1 I29      -0.621100
     25 N10          0.4670     2.2450    -0.4110 n          1 I29      -0.471800
     26 C14          1.0950     2.4670     0.8750 c6         1 I29       0.102500
     27 C13          1.9900     1.3010     1.2420 c6         1 I29       0.142800
     28 N12          2.9940     1.0700     0.2160 n3         1 I29      -0.707600
     29 C12          2.3510     0.8440    -1.0670 c6         1 I29       0.142800
     30 C11          1.4440     1.9980    -1.4560 c6         1 I29       0.102500
     31 C16          5.0800    -0.1870    -0.2850 c3         1 I29      -0.050400
     32 C17          5.9650    -1.2970     0.2640 c3         1 I29      -0.191600
     33 S17          7.4100    -1.5290    -0.7660 s6         1 I29       1.001000
     34 C19          8.2840    -2.8640     0.0180 c3         1 I29      -0.226300
     35 O17          6.9730    -1.9690    -2.0930 o          1 I29      -0.585300
     36 O18          8.2350    -0.3210    -0.6890 o          1 I29      -0.585300
     37 C15          3.8510    -0.0330     0.6030 c3         1 I29       0.169800
     38 H1          -2.3980     1.5160     3.4450 hc         1 I29       0.047700
     39 H2          -0.9070     2.2430     2.9050 hc         1 I29       0.047700
     40 H3          -2.4230     3.1140     2.7230 hc         1 I29       0.047700
     41 H4          -4.5200     2.0140     2.8960 hc         1 I29       0.045700
     42 H5          -5.6290     1.1030     1.8790 hc         1 I29       0.045700
     43 H6          -4.3090     0.2780     2.7000 hc         1 I29       0.045700
     44 H10         -2.9280     4.6360    -1.6510 hc         1 I29       0.066033
     45 H11         -3.7240     5.2650    -0.2110 hc         1 I29       0.066033
     46 H12         -1.9560     5.2020    -0.2950 hc         1 I29       0.066033
     47 H13         -1.2210    -0.1580     3.2120 ha         1 I29       0.145000
     48 H14         -0.0740    -2.2780     2.9780 ha         1 I29       0.151000
     49 H15         -0.3130    -1.9370    -1.2890 ha         1 I29       0.151000
     50 H16         -1.4910     0.1580    -1.0660 ha         1 I29       0.145000
     51 H17         -4.0520    -1.2430     1.2210 ha         1 I29       0.143000
     52 H18         -4.5190    -2.9170    -0.4800 ha         1 I29       0.148500
     53 H19         -4.5840     0.1460    -3.4770 ha         1 I29       0.148500
     54 H20         -4.1360     1.8280    -1.7750 ha         1 I29       0.143000
     55 H21          1.6950     3.3830     0.8190 h1         1 I29       0.060950
     56 H22          0.3510     2.6250     1.6460 h1         1 I29       0.060950
     57 H23          2.4900     1.5330     2.1850 h1         1 I29       0.044700
     58 H24          1.3690     0.4080     1.4100 h1         1 I29       0.044700
     59 H26          3.1070     0.7480    -1.8470 h1         1 I29       0.044700
     60 H27          1.7640    -0.0890    -1.0640 h1         1 I29       0.044700
     61 H28          0.9390     1.7530    -2.3870 h1         1 I29       0.060950
     62 H29          2.0400     2.9020    -1.6270 h1         1 I29       0.060950
     63 H30          5.6290     0.7560    -0.3090 hc         1 I29       0.069700
     64 H31          4.7920    -0.4300    -1.3090 hc         1 I29       0.069700
     65 H32          6.3270    -1.0670     1.2680 h1         1 I29       0.092700
     66 H33          5.4390    -2.2530     0.2970 h1         1 I29       0.092700
     67 H34          7.6490    -3.7460     0.0490 h1         1 I29       0.104033
     68 H35          9.1720    -3.0660    -0.5800 h1         1 I29       0.104033
     69 H36          8.5720    -2.5670     1.0230 h1         1 I29       0.104033
     70 H37          4.1870     0.1520     1.6280 h1         1 I29       0.034200
     71 H38          3.2950    -0.9870     0.6260 h1         1 I29       0.034200
@<TRIPOS>BOND
     1     1     2 1   
     2     1     9 1   
     3     1    23 1   
     4     2     3 1   
     5     2     4 1   
     6     2     5 1   
     7     3    38 1   
     8     3    39 1   
     9     3    40 1   
    10     4    11 ar  
    11     4    16 ar  
    12     5     6 1   
    13     5     7 1   
    14     5     8 1   
    15     6    41 1   
    16     6    42 1   
    17     6    43 1   
    18     7    17 ar  
    19     7    22 ar  
    20     8     9 2   
    21     9    10 1   
    22    10    44 1   
    23    10    45 1   
    24    10    46 1   
    25    11    12 ar  
    26    11    47 1   
    27    12    13 ar  
    28    12    48 1   
    29    13    14 1   
    30    13    15 ar  
    31    15    16 ar  
    32    15    49 1   
    33    16    50 1   
    34    17    18 ar  
    35    17    51 1   
    36    18    19 ar  
    37    18    52 1   
    38    19    20 1   
    39    19    21 ar  
    40    21    22 ar  
    41    21    53 1   
    42    22    54 1   
    43    23    24 2   
    44    23    25 1   
    45    25    26 1   
    46    25    30 1   
    47    26    27 1   
    48    26    55 1   
    49    26    56 1   
    50    27    28 1   
    51    27    57 1   
    52    27    58 1   
    53    28    29 1   
    54    28    37 1   
    55    29    30 1   
    56    29    59 1   
    57    29    60 1   
    58    30    61 1   
    59    30    62 1   
    60    31    32 1   
    61    31    37 1   
    62    31    63 1   
    63    31    64 1   
    64    32    33 1   
    65    32    65 1   
    66    32    66 1   
    67    33    34 1   
    68    33    35 2   
    69    33    36 2   
    70    34    67 1   
    71    34    68 1   
    72    34    69 1   
    73    37    70 1   
    74    37    71 1   
@<TRIPOS>SUBSTRUCTURE
     1 I29         1 TEMP              0 ****  ****    0 ROOT
