@<TRIPOS>MOLECULE
I29
   71    74     1     0     0
SMALL
No Charge or Current Charge


@<TRIPOS>ATOM
      1 N1          -1.5270     2.2640    -0.0070 n          1 I29      -0.402300
      2 C5          -2.1190     1.0420     0.6000 c5         1 I29       0.162700
      3 C57         -1.3900     0.5830     1.9000 c3         1 I29      -0.092100
      4 C51         -2.1660    -0.0460    -0.5320 ca         1 I29      -0.078300
      5 C4          -3.6110     1.6060     0.8800 c5         1 I29       0.172500
      6 C47         -3.8870     2.0490     2.3490 c3         1 I29      -0.068100
      7 C41         -4.6560     0.5340     0.4680 ca         1 I29      -0.081300
      8 N3          -3.7080     2.8880     0.1120 n2         1 I29      -0.622900
      9 C2          -2.5240     3.1960    -0.2750 c2         1 I29       0.477900
     10 C21         -2.2710     4.5190    -0.9640 c3         1 I29      -0.123400
     11 C56         -1.7290    -1.3760    -0.2970 ca         1 I29      -0.086000
     12 C55         -1.7840    -2.3520    -1.3070 ca         1 I29      -0.110000
     13 C54         -2.2770    -2.0270    -2.5760 ca         1 I29       0.122000
     14 Cl5         -2.3490    -3.2520    -3.8360 cl         1 I29      -0.203000
     15 C53         -2.7150    -0.7240    -2.8380 ca         1 I29      -0.110000
     16 C52         -2.6600     0.2530    -1.8300 ca         1 I29      -0.086000
     17 C42         -4.7360    -0.6980     1.1610 ca         1 I29      -0.086000
     18 C43         -5.6630    -1.6840     0.7840 ca         1 I29      -0.108000
     19 C44         -6.5350    -1.4550    -0.2880 ca         1 I29       0.121000
     20 Cl4         -7.6920    -2.6920    -0.7640 cl         1 I29      -0.206000
     21 C45         -6.4880    -0.2360    -0.9780 ca         1 I29      -0.108000
     22 C46         -5.5610     0.7520    -0.6020 ca         1 I29      -0.086000
     23 C10         -0.3970     2.1590    -0.8420 c          1 I29       0.674100
     24 O10         -0.4280     2.5180    -2.0110 o          1 I29      -0.621100
     25 N10          0.7780     1.6100    -0.3040 n          1 I29      -0.404800
     26 C14          1.3260     2.1840     0.9590 c6         1 I29       0.102500
     27 C13          2.4180     1.3020     1.6230 c6         1 I29       0.142800
     28 N12          3.5110     0.9530     0.6760 n3         1 I29      -0.707600
     29 C12          2.9360     0.2730    -0.5220 c6         1 I29       0.142800
     30 C11          1.8480     1.1310    -1.2230 c6         1 I29       0.102500
     31 C16          5.8660    -0.0120     0.4840 c3         1 I29      -0.050400
     32 C17          7.0270    -0.6600     1.2830 c3         1 I29      -0.302400
     33 S17          8.5260    -0.8940     0.3000 s6         1 I29       1.081000
     34 C19          9.6900    -1.6470     1.4330 c3         1 I29      -0.337100
     35 O17          8.2320    -1.8700    -0.7570 o          1 I29      -0.514500
     36 O18          9.0460     0.4300    -0.0630 o          1 I29      -0.514500
     37 C15          4.5950     0.1880     1.3410 c3         1 I29       0.169800
     38 H1          -1.9510    -0.1970     2.4260 hc         1 I29       0.047700
     39 H2          -0.4030     0.1640     1.6830 hc         1 I29       0.047700
     40 H3          -1.2460     1.4100     2.6040 hc         1 I29       0.047700
     41 H4          -3.1800     2.8180     2.6820 hc         1 I29       0.045700
     42 H5          -4.8950     2.4710     2.4440 hc         1 I29       0.045700
     43 H6          -3.8270     1.2140     3.0550 hc         1 I29       0.045700
     44 H10         -2.3870     4.4220    -2.0490 hc         1 I29       0.066033
     45 H11         -2.9770     5.2840    -0.6210 hc         1 I29       0.066033
     46 H12         -1.2610     4.8900    -0.7570 hc         1 I29       0.066033
     47 H13         -1.3490    -1.6830     0.6720 ha         1 I29       0.127000
     48 H14         -1.4460    -3.3650    -1.1030 ha         1 I29       0.133000
     49 H15         -3.1000    -0.4700    -3.8220 ha         1 I29       0.133000
     50 H16         -3.0160     1.2500    -2.0700 ha         1 I29       0.127000
     51 H17         -4.0710    -0.9050     1.9940 ha         1 I29       0.125000
     52 H18         -5.7030    -2.6280     1.3220 ha         1 I29       0.130500
     53 H19         -7.1670    -0.0560    -1.8070 ha         1 I29       0.130500
     54 H20         -5.5470     1.6840    -1.1600 ha         1 I29       0.125000
     55 H21          1.7760     3.1580     0.7200 h1         1 I29       0.060950
     56 H22          0.5280     2.3880     1.6820 h1         1 I29       0.060950
     57 H23          2.8220     1.8440     2.4900 h1         1 I29       0.044700
     58 H24          1.9470     0.3860     2.0100 h1         1 I29       0.044700
     59 H26          3.7170     0.0530    -1.2630 h1         1 I29       0.044700
     60 H27          2.4880    -0.6890    -0.2300 h1         1 I29       0.044700
     61 H28          1.3960     0.5380    -2.0310 h1         1 I29       0.060950
     62 H29          2.3300     2.0030    -1.6880 h1         1 I29       0.060950
     63 H30          6.1850     0.9640     0.0970 hc         1 I29       0.069700
     64 H31          5.6310    -0.6420    -0.3810 hc         1 I29       0.069700
     65 H32          7.3100    -0.0290     2.1330 h1         1 I29       0.092700
     66 H33          6.7380    -1.6530     1.6470 h1         1 I29       0.092700
     67 H34          9.2580    -2.5940     1.7740 h1         1 I29       0.104033
     68 H35         10.6240    -1.8130     0.8860 h1         1 I29       0.104033
     69 H36          9.8380    -0.9550     2.2690 h1         1 I29       0.104033
     70 H37          4.8960     0.7190     2.2540 h1         1 I29       0.034200
     71 H38          4.2220    -0.7980     1.6530 h1         1 I29       0.034200
@<TRIPOS>BOND
     1     1     2 1   
     2     1     9 1   
     3     1    23 1   
     4     2     3 1   
     5     2     4 1   
     6     2     5 1   
     7     3    38 1   
     8     3    39 1   
     9     3    40 1   
    10     4    11 ar  
    11     4    16 ar  
    12     5     6 1   
    13     5     7 1   
    14     5     8 1   
    15     6    41 1   
    16     6    42 1   
    17     6    43 1   
    18     7    17 ar  
    19     7    22 ar  
    20     8     9 2   
    21     9    10 1   
    22    10    44 1   
    23    10    45 1   
    24    10    46 1   
    25    11    12 ar  
    26    11    47 1   
    27    12    13 ar  
    28    12    48 1   
    29    13    14 1   
    30    13    15 ar  
    31    15    16 ar  
    32    15    49 1   
    33    16    50 1   
    34    17    18 ar  
    35    17    51 1   
    36    18    19 ar  
    37    18    52 1   
    38    19    20 1   
    39    19    21 ar  
    40    21    22 ar  
    41    21    53 1   
    42    22    54 1   
    43    23    24 2   
    44    23    25 1   
    45    25    26 1   
    46    25    30 1   
    47    26    27 1   
    48    26    55 1   
    49    26    56 1   
    50    27    28 1   
    51    27    57 1   
    52    27    58 1   
    53    28    29 1   
    54    28    37 1   
    55    29    30 1   
    56    29    59 1   
    57    29    60 1   
    58    30    61 1   
    59    30    62 1   
    60    31    32 1   
    61    31    37 1   
    62    31    63 1   
    63    31    64 1   
    64    32    33 1   
    65    32    65 1   
    66    32    66 1   
    67    33    34 1   
    68    33    35 2   
    69    33    36 2   
    70    34    67 1   
    71    34    68 1   
    72    34    69 1   
    73    37    70 1   
    74    37    71 1   
@<TRIPOS>SUBSTRUCTURE
     1 I29         1 TEMP              0 ****  ****    0 ROOT
