@<TRIPOS>MOLECULE
I2B
   31    32     1     0     0
SMALL
No Charge or Current Charge


@<TRIPOS>ATOM
      1 N1           3.7630     4.8710    11.2270 n1         1 I2B      -0.464000
      2 C4           1.8140     8.2340    10.8630 ca         1 I2B      -0.131300
      3 C5           2.9670     8.2490    11.8630 c3         1 I2B      -0.013100
      4 C6           4.2140     7.4680    11.3610 c3         1 I2B       0.053700
      5 C7           3.9500     6.0210    11.2760 c1         1 I2B       0.308900
      6 C8           5.4910     7.7140    12.1920 ca         1 I2B      -0.117300
      7 C10          6.5800     8.1210    14.3520 ca         1 I2B      -0.205000
      8 C13          6.7720     7.7280    11.5800 ca         1 I2B       0.164000
      9 C15          0.7700     9.0840     8.8280 ca         1 I2B      -0.173500
     10 C1          -0.3070     8.2060     9.0080 ca         1 I2B       0.145100
     11 C2          -0.3310     7.3400    10.1130 ca         1 I2B      -0.173500
     12 C3           0.7270     7.3540    11.0400 ca         1 I2B      -0.060500
     13 C9           5.4170     7.9030    13.5940 ca         1 I2B      -0.047000
     14 C11          7.8330     8.1460    13.7280 ca         1 I2B       0.157100
     15 O2           8.9620     8.3560    14.4610 oh         1 I2B      -0.526100
     16 C12          7.9280     7.9460    12.3470 ca         1 I2B      -0.143000
     17 Cl1          6.9820     7.4580     9.8480 cl         1 I2B      -0.198000
     18 C14          1.8290     9.1010     9.7520 ca         1 I2B      -0.060500
     19 H1           3.2600     9.2890    12.0590 hc         1 I2B       0.059200
     20 H2           2.6290     7.8440    12.8250 hc         1 I2B       0.059200
     21 H3           4.3790     7.8130    10.3350 hc         1 I2B       0.093700
     22 H4           6.4970     8.2660    15.4270 ha         1 I2B       0.122000
     23 H5           0.7870     9.7540     7.9720 ha         1 I2B       0.122000
     24 H6          -1.9870     7.5280     8.3890 ho         1 I2B       0.466000
     25 H7          -1.1620     6.6560    10.2610 ha         1 I2B       0.122000
     26 H8           0.7020     6.6790    11.8920 ha         1 I2B       0.114000
     27 H9           4.4620     7.8760    14.1120 ha         1 I2B       0.126000
     28 H10          8.7040     8.4720    15.4000 ho         1 I2B       0.471000
     29 H11          8.9010     7.9570    11.8650 ha         1 I2B       0.147000
     30 H12          2.6620     9.7860     9.6040 ha         1 I2B       0.114000
     31 O1          -1.3290     8.1980     8.1060 oh         1 I2B      -0.533100
@<TRIPOS>BOND
     1     1     5 3   
     2     2     3 1   
     3     2    12 ar  
     4     2    18 ar  
     5     3     4 1   
     6     3    19 1   
     7     3    20 1   
     8     4     5 1   
     9     4     6 1   
    10     4    21 1   
    11     6     8 ar  
    12     6    13 ar  
    13     7    13 ar  
    14     7    14 ar  
    15     7    22 1   
    16     8    16 ar  
    17     8    17 1   
    18     9    10 ar  
    19     9    18 ar  
    20     9    23 1   
    21    10    11 ar  
    22    10    31 1   
    23    11    12 ar  
    24    11    25 1   
    25    12    26 1   
    26    13    27 1   
    27    14    15 1   
    28    14    16 ar  
    29    15    28 1   
    30    16    29 1   
    31    18    30 1   
    32    24    31 1   
@<TRIPOS>SUBSTRUCTURE
     1 I2B         1 TEMP              0 ****  ****    0 ROOT
