@<TRIPOS>MOLECULE
I2B
   31    32     1     0     0
SMALL
bcc


@<TRIPOS>ATOM
      1 N1           3.1020     5.1250    11.8040 n1         1 I2B      -0.374800
      2 C4           1.9830     8.3850    10.6770 ca         1 I2B      -0.131300
      3 C5           3.2010     8.5600    11.5360 c3         1 I2B      -0.013100
      4 C6           4.2390     7.4280    11.3390 c3         1 I2B       0.053700
      5 C7           3.6160     6.1340    11.6010 c1         1 I2B       0.219700
      6 C8           5.4640     7.6360    12.1990 ca         1 I2B      -0.117300
      7 C10          6.6590     7.3210    14.2900 ca         1 I2B      -0.223000
      8 C13          6.5220     8.4370    11.7750 ca         1 I2B       0.072400
      9 C15          0.9160     8.4700     8.5020 ca         1 I2B      -0.191500
     10 C1          -0.2740     7.9950     9.0530 ca         1 I2B       0.145100
     11 C2          -0.3310     7.7180    10.4150 ca         1 I2B      -0.191500
     12 C3           0.7900     7.9120    11.2100 ca         1 I2B      -0.078500
     13 C9           5.5630     7.0960    13.4770 ca         1 I2B      -0.065000
     14 C11          7.7050     8.1180    13.8350 ca         1 I2B       0.157100
     15 O2           8.8000     8.3780    14.5660 oh         1 I2B      -0.487100
     16 C12          7.6320     8.6820    12.5650 ca         1 I2B      -0.161000
     17 CL1          6.4780     9.1780    10.2070 cl         1 I2B      -0.106400
     18 C14          2.0240     8.6590     9.3110 ca         1 I2B      -0.078500
     19 H1           3.7060     9.4980    11.3020 hc         1 I2B       0.059200
     20 H2           2.9260     8.5990    12.5910 hc         1 I2B       0.059200
     21 H3           4.5290     7.4070    10.2840 hc         1 I2B       0.093700
     22 H4           6.6950     6.8740    15.2770 ha         1 I2B       0.140000
     23 H5           0.9680     8.6920     7.4440 ha         1 I2B       0.140000
     24 H6          -2.0890     7.4920     8.7130 ho         1 I2B       0.427000
     25 H7          -1.2480     7.3510    10.8610 ha         1 I2B       0.140000
     26 H8           0.7260     7.6910    12.2690 ha         1 I2B       0.132000
     27 H9           4.7620     6.4730    13.8560 ha         1 I2B       0.144000
     28 H10          8.7490     7.9410    15.4250 ho         1 I2B       0.432000
     29 H11          8.4390     9.3050    12.2010 ha         1 I2B       0.165000
     30 H12          2.9410     9.0330     8.8670 ha         1 I2B       0.132000
     31 O1          -1.3270     7.8300     8.2280 oh         1 I2B      -0.494100
@<TRIPOS>BOND
     1     1     5 3   
     2     2     3 1   
     3     2    12 ar  
     4     2    18 ar  
     5     3     4 1   
     6     3    19 1   
     7     3    20 1   
     8     4     5 1   
     9     4     6 1   
    10     4    21 1   
    11     6     8 ar  
    12     6    13 ar  
    13     7    13 ar  
    14     7    14 ar  
    15     7    22 1   
    16     8    16 ar  
    17     8    17 1   
    18     9    10 ar  
    19     9    18 ar  
    20     9    23 1   
    21    10    11 ar  
    22    10    31 1   
    23    11    12 ar  
    24    11    25 1   
    25    12    26 1   
    26    13    27 1   
    27    14    15 1   
    28    14    16 ar  
    29    15    28 1   
    30    16    29 1   
    31    18    30 1   
    32    24    31 1   
@<TRIPOS>SUBSTRUCTURE
     1 I2B         1 TEMP              0 ****  ****    0 ROOT
