@<TRIPOS>MOLECULE
I2C
   58    61     1     0     0
SMALL
abcg2


@<TRIPOS>ATOM
      1 O8           8.4370     0.5670     1.2830 o          1 I2C      -0.540100
      2 C8           7.4130     1.1610     1.5120 c          1 I2C       0.585900
      3 N1           4.3100     2.2220     1.2770 nb         1 I2C      -0.744000
      4 C2           3.0610     1.8930     1.5100 ca         1 I2C       0.595300
      5 O2           2.3530     2.8480     2.1360 oh         1 I2C      -0.660300
      6 C3           2.4860     0.6660     1.1520 ca         1 I2C      -0.231300
      7 C3M          1.0540     0.3700     1.4820 c3         1 I2C      -0.040800
      8 C7           6.5340     1.7980     0.4710 c3         1 I2C      -0.244700
      9 C6           5.1050     1.3510     0.6540 ca         1 I2C       0.376300
     10 C5           4.6720     0.1010     0.2340 ca         1 I2C      -0.182300
     11 C5M          5.5500    -0.9010    -0.4590 c3         1 I2C      -0.036800
     12 C4           3.3310    -0.2210     0.5010 ca         1 I2C       0.285100
     13 O3P          2.9000    -1.4570     0.1650 os         1 I2C      -0.475500
     14 P1           2.0540    -1.7650    -1.2380 p5         1 I2C       1.402800
     15 O2P          2.8840    -2.6540    -2.1040 o          1 I2C      -0.807000
     16 O1P          1.4880    -0.4850    -1.7640 o          1 I2C      -0.807000
     17 O5           0.9060    -2.6540    -0.4810 os         1 I2C      -0.576400
     18 C11         -0.1780    -3.1260    -1.2490 c3         1 I2C       0.211600
     19 C12         -1.3920    -3.2580    -0.3470 c5         1 I2C       0.157300
     20 O4          -1.6860    -2.0150     0.2970 os         1 I2C      -0.426000
     21 C10         -2.6420    -3.6260    -1.1330 c5         1 I2C       0.102300
     22 O3          -3.5270    -4.3110    -0.2860 oh         1 I2C      -0.710000
     23 C9          -3.1830    -2.2370    -1.4850 c5         1 I2C       0.073300
     24 O7          -4.5530    -2.1880    -1.7480 oh         1 I2C      -0.702000
     25 C1          -2.8690    -1.4650    -0.2030 c5         1 I2C       0.318300
     26 N9A         -2.6940    -0.0490    -0.4060 na         1 I2C      -0.188500
     27 C4A         -3.5900     0.9210    -0.0770 cc         1 I2C       0.130400
     28 N3A         -4.7690     0.7390     0.5330 nc         1 I2C      -0.693100
     29 C2A         -5.4270     1.8550     0.7260 cd         1 I2C       0.721800
     30 N2A         -6.6370     1.8270     1.2970 nv         1 I2C      -1.064200
     31 N1A         -4.9510     3.0760     0.3400 ns         1 I2C      -0.461400
     32 C8A         -1.6290     0.5860    -1.0020 cc         1 I2C       0.431400
     33 N7A         -1.7890     1.8720    -1.0690 nd         1 I2C      -0.603000
     34 C5A         -3.0150     2.1060    -0.4990 cd         1 I2C       0.090500
     35 C6A         -3.7260     3.3220    -0.2930 c          1 I2C       0.520500
     36 O6A         -3.4000     4.4600    -0.5900 o          1 I2C      -0.532000
     37 H8           7.0450     1.2790     2.5470 h4         1 I2C      -0.012800
     38 HO2          1.4380     2.5750     2.2690 ho         1 I2C       0.473000
     39 H3M          0.3730     1.0320     0.9410 hc         1 I2C       0.047033
     40 H3MA         0.7680    -0.6430     1.2200 hc         1 I2C       0.047033
     41 H3MB         0.8590     0.4910     2.5500 hc         1 I2C       0.047033
     42 H7           6.5730     2.8780     0.6410 hc         1 I2C       0.078200
     43 H7A          6.9210     1.5980    -0.5270 hc         1 I2C       0.078200
     44 H5M          5.7070    -1.7860     0.1600 hc         1 I2C       0.047700
     45 H5MA         5.1040    -1.2430    -1.3920 hc         1 I2C       0.047700
     46 H5MB         6.5290    -0.4970    -0.6980 hc         1 I2C       0.047700
     47 H5          -0.4020    -2.4540    -2.0860 h1         1 I2C       0.025200
     48 H5'A         0.0470    -4.1090    -1.6760 h1         1 I2C       0.025200
     49 H4          -1.1850    -4.0030     0.4270 h1         1 I2C       0.099700
     50 H3          -2.4030    -4.2120    -2.0320 h1         1 I2C       0.054700
     51 HO3         -4.4160    -4.2170    -0.6480 ho         1 I2C       0.511000
     52 H2          -2.5980    -1.8240    -2.3170 h1         1 I2C       0.069700
     53 H6          -4.7010    -2.4100    -2.6730 ho         1 I2C       0.507000
     54 H1          -3.6970    -1.5720     0.5070 h2         1 I2C       0.101700
     55 HN2A        -6.9520     0.9630     1.7020 hn         1 I2C       0.497500
     56 HN2B        -7.1040     2.6680     1.5880 hn         1 I2C       0.497500
     57 HN1A        -5.5220     3.8930     0.5180 hn         1 I2C       0.310500
     58 H8A         -0.7480     0.0530    -1.3320 h5         1 I2C       0.122100
@<TRIPOS>BOND
     1     1     2 2   
     2     2     8 1   
     3     2    37 1   
     4     3     4 ar  
     5     3     9 ar  
     6     4     5 1   
     7     4     6 ar  
     8     5    38 1   
     9     6     7 1   
    10     6    12 ar  
    11     7    39 1   
    12     7    40 1   
    13     7    41 1   
    14     8     9 1   
    15     8    42 1   
    16     8    43 1   
    17     9    10 ar  
    18    10    11 1   
    19    10    12 ar  
    20    11    44 1   
    21    11    45 1   
    22    11    46 1   
    23    12    13 1   
    24    13    14 1   
    25    14    15 1   
    26    14    16 1   
    27    14    17 1   
    28    17    18 1   
    29    18    19 1   
    30    18    47 1   
    31    18    48 1   
    32    19    20 1   
    33    19    21 1   
    34    19    49 1   
    35    20    25 1   
    36    21    22 1   
    37    21    23 1   
    38    21    50 1   
    39    22    51 1   
    40    23    24 1   
    41    23    25 1   
    42    23    52 1   
    43    24    53 1   
    44    25    26 1   
    45    25    54 1   
    46    26    27 1   
    47    26    32 1   
    48    27    28 1   
    49    27    34 2   
    50    28    29 2   
    51    29    30 1   
    52    29    31 1   
    53    30    55 1   
    54    30    56 1   
    55    31    35 1   
    56    31    57 1   
    57    32    33 2   
    58    32    58 1   
    59    33    34 1   
    60    34    35 1   
    61    35    36 2   
@<TRIPOS>SUBSTRUCTURE
     1 I2C         1 TEMP              0 ****  ****    0 ROOT
