@<TRIPOS>MOLECULE
I2C
   58    61     1     0     0
SMALL
No Charge or Current Charge


@<TRIPOS>ATOM
      1 O8           4.8340     2.8950     1.3250 o          1 I2C      -0.540100
      2 C8           3.6790     3.3080     1.3400 c          1 I2C       0.585900
      3 N1           1.1970     1.5770     1.8870 nb         1 I2C      -0.744000
      4 C2           0.6970     0.4630     2.4200 ca         1 I2C       0.595300
      5 O2          -0.1600     0.6730     3.4430 oh         1 I2C      -0.660300
      6 C3           1.0440    -0.8330     2.0130 ca         1 I2C      -0.231300
      7 C3M          0.4540    -2.0610     2.7230 c3         1 I2C      -0.040800
      8 C7           2.5990     2.8040     0.3990 c3         1 I2C      -0.244700
      9 C6           2.0950     1.4640     0.8970 ca         1 I2C       0.376300
     10 C5           2.5410     0.2160     0.3970 ca         1 I2C      -0.182300
     11 C5M          3.6760     0.1540    -0.6350 c3         1 I2C      -0.036800
     12 C4           1.9520    -0.9560     0.9410 ca         1 I2C       0.285100
     13 O3P          2.3350    -2.2170     0.5560 os         1 I2C      -0.475500
     14 P1           2.2760    -2.8710    -0.9220 p5         1 I2C       1.402800
     15 O2P          3.6030    -3.4400    -1.3020 o          1 I2C      -0.807000
     16 O1P          1.7600    -1.9400    -1.9680 o          1 I2C      -0.807000
     17 O5           1.2390    -4.0810    -0.6460 os         1 I2C      -0.576400
     18 C11         -0.0850    -4.1090    -1.2160 c3         1 I2C       0.211600
     19 C12         -1.1300    -3.3540    -0.3390 c5         1 I2C       0.157300
     20 O4          -0.7770    -1.9530    -0.1880 os         1 I2C      -0.426000
     21 C10         -2.5600    -3.3540    -0.9860 c5         1 I2C       0.102300
     22 O3          -3.6160    -3.2350    -0.0220 oh         1 I2C      -0.710000
     23 C9          -2.4660    -2.0690    -1.8580 c5         1 I2C       0.073300
     24 O7          -3.7650    -1.6230    -2.2980 oh         1 I2C      -0.702000
     25 C1          -1.7820    -1.1310    -0.8130 c5         1 I2C       0.318300
     26 N9A         -1.1710     0.1050    -1.2880 na         1 I2C      -0.188500
     27 C4A         -1.3210     1.3490    -0.7360 cc         1 I2C       0.130400
     28 N3A         -2.0450     1.7030     0.3840 nc         1 I2C      -0.693100
     29 C2A         -1.9640     2.9810     0.6600 cd         1 I2C       0.721800
     30 N2A         -2.6300     3.3740     1.7290 nv         1 I2C      -1.064200
     31 N1A         -1.3040     3.9300    -0.0340 ns         1 I2C      -0.461400
     32 C8A         -0.3890     0.2610    -2.4160 cc         1 I2C       0.431400
     33 N7A         -0.0300     1.5340    -2.5860 nd         1 I2C      -0.603000
     34 C5A         -0.6110     2.2200    -1.5260 cd         1 I2C       0.090500
     35 C6A         -0.5860     3.6680    -1.1660 c          1 I2C       0.520500
     36 O6A         -0.0050     4.5500    -1.7840 o          1 I2C      -0.532000
     37 H8           3.3600     4.0920     2.0620 h4         1 I2C      -0.012800
     38 HO2         -0.4590    -0.2120     3.7230 ho         1 I2C       0.473000
     39 H3M         -0.6420    -2.0500     2.6890 hc         1 I2C       0.047033
     40 H3MA         0.7710    -3.0100     2.2760 hc         1 I2C       0.047033
     41 H3MB         0.7580    -2.0900     3.7760 hc         1 I2C       0.047033
     42 H7           1.7770     3.5270     0.4150 hc         1 I2C       0.078200
     43 H7A          2.9920     2.7340    -0.6200 hc         1 I2C       0.078200
     44 H5M          4.2330    -0.7880    -0.5840 hc         1 I2C       0.047700
     45 H5MA         3.2920     0.2730    -1.6550 hc         1 I2C       0.047700
     46 H5MB         4.4240     0.9360    -0.4720 hc         1 I2C       0.047700
     47 H5          -0.0830    -3.6880    -2.2290 h1         1 I2C       0.025200
     48 H5'A        -0.4140    -5.1510    -1.3100 h1         1 I2C       0.025200
     49 H4          -1.1480    -3.8300     0.6500 h1         1 I2C       0.099700
     50 H3          -2.7180    -4.2470    -1.6080 h1         1 I2C       0.054700
     51 HO3         -4.3050    -2.6880    -0.4720 ho         1 I2C       0.511000
     52 H2          -1.8010    -2.2280    -2.7190 h1         1 I2C       0.069700
     53 H6          -3.9450    -2.0360    -3.1770 ho         1 I2C       0.507000
     54 H1          -2.5200    -0.8360    -0.0560 h2         1 I2C       0.101700
     55 HN2A        -2.9220     2.5980     2.3090 hn         1 I2C       0.497500
     56 HN2B        -2.2470     4.1590     2.2400 hn         1 I2C       0.497500
     57 HN1A        -1.3460     4.8910     0.2620 hn         1 I2C       0.310500
     58 H8A         -0.1220    -0.5710    -3.0580 h5         1 I2C       0.122100
@<TRIPOS>BOND
     1     1     2 2   
     2     2     8 1   
     3     2    37 1   
     4     3     4 ar  
     5     3     9 ar  
     6     4     5 1   
     7     4     6 ar  
     8     5    38 1   
     9     6     7 1   
    10     6    12 ar  
    11     7    39 1   
    12     7    40 1   
    13     7    41 1   
    14     8     9 1   
    15     8    42 1   
    16     8    43 1   
    17     9    10 ar  
    18    10    11 1   
    19    10    12 ar  
    20    11    44 1   
    21    11    45 1   
    22    11    46 1   
    23    12    13 1   
    24    13    14 1   
    25    14    15 1   
    26    14    16 1   
    27    14    17 1   
    28    17    18 1   
    29    18    19 1   
    30    18    47 1   
    31    18    48 1   
    32    19    20 1   
    33    19    21 1   
    34    19    49 1   
    35    20    25 1   
    36    21    22 1   
    37    21    23 1   
    38    21    50 1   
    39    22    51 1   
    40    23    24 1   
    41    23    25 1   
    42    23    52 1   
    43    24    53 1   
    44    25    26 1   
    45    25    54 1   
    46    26    27 1   
    47    26    32 1   
    48    27    28 1   
    49    27    34 2   
    50    28    29 2   
    51    29    30 1   
    52    29    31 1   
    53    30    55 1   
    54    30    56 1   
    55    31    35 1   
    56    31    57 1   
    57    32    33 2   
    58    32    58 1   
    59    33    34 1   
    60    34    35 1   
    61    35    36 2   
@<TRIPOS>SUBSTRUCTURE
     1 I2C         1 TEMP              0 ****  ****    0 ROOT
