@<TRIPOS>MOLECULE
I2D
   48    51     1     0     0
SMALL
No Charge or Current Charge


@<TRIPOS>ATOM
      1 C02         14.4640     0.4920    23.8450 ca         1 I2D       0.123000
      2 C03         13.0610     0.4740    23.7900 ca         1 I2D      -0.087000
      3 C04         12.3790     1.2290    22.8150 ca         1 I2D      -0.074300
      4 C05         10.8580     1.1970    22.7530 c3         1 I2D       0.156300
      5 C07         10.1230    -1.1560    23.0810 ca         1 I2D      -0.066000
      6 C08          9.1660    -1.0390    24.1060 ca         1 I2D      -0.106000
      7 C09          8.8630    -2.1370    24.9280 ca         1 I2D      -0.106000
      8 C10          9.4830    -3.3870    24.7230 ca         1 I2D       0.030000
      9 C11          9.1480    -4.5190    25.5980 cc         1 I2D      -0.166000
     10 C12          9.7010    -5.7610    25.4650 cd         1 I2D      -0.151000
     11 C15          8.2610    -4.5900    26.6860 cc         1 I2D       0.255900
     12 C16         10.4040    -3.5120    23.6610 ca         1 I2D      -0.106000
     13 C17         10.7050    -2.4130    22.8380 ca         1 I2D      -0.106000
     14 C18         10.0990    -0.1110    20.7710 c          1 I2D       0.603100
     15 C19          9.2340    -1.2440    20.1820 c3         1 I2D      -0.105100
     16 C20          7.7820    -0.7840    20.0730 ca         1 I2D      -0.121300
     17 C21          6.8540    -1.0970    21.0820 ca         1 I2D      -0.056000
     18 C22          5.5350    -0.6370    20.9390 ca         1 I2D      -0.163000
     19 C23          5.1880     0.1140    19.8040 ca         1 I2D       0.338900
     20 C25          7.3460    -0.0200    18.9690 ca         1 I2D       0.350900
     21 C27         13.1190     2.0000    21.8960 ca         1 I2D      -0.108000
     22 C28         14.5240     2.0190    21.9530 ca         1 I2D      -0.098000
     23 C29         15.1970     1.2640    22.9290 ca         1 I2D      -0.104000
     24 N06         10.3330    -0.0610    22.1730 n          1 I2D      -0.254400
     25 N13          9.1120    -6.5200    26.4870 na         1 I2D       0.000800
     26 N14          8.2080    -5.7800    27.2520 nd         1 I2D      -0.516800
     27 N24          6.0740     0.4230    18.8290 nb         1 I2D      -0.665000
     28 O26         10.4910     0.7850    20.0310 o          1 I2D      -0.568100
     29 Cl01        15.3060    -0.4580    25.0640 cl         1 I2D      -0.210000
     30 H1          12.5040    -0.1300    24.5020 ha         1 I2D       0.126000
     31 H2          10.4880     2.0560    22.1780 h1         1 I2D       0.061700
     32 H3          10.4660     1.3160    23.7700 h1         1 I2D       0.061700
     33 H4           8.6490    -0.0950    24.2670 ha         1 I2D       0.123000
     34 H5           8.1310    -2.0110    25.7210 ha         1 I2D       0.116500
     35 H6          10.4290    -6.1690    24.7720 h4         1 I2D       0.157000
     36 H7           7.6430    -3.7980    27.0880 h4         1 I2D       0.039100
     37 H8          10.8910    -4.4600    23.4550 ha         1 I2D       0.116500
     38 H9          11.4110    -2.5370    22.0200 ha         1 I2D       0.123000
     39 H10          9.2580    -2.1440    20.7990 hc         1 I2D       0.072200
     40 H11          9.6120    -1.4880    19.1820 hc         1 I2D       0.072200
     41 H12          7.1450    -1.6780    21.9550 ha         1 I2D       0.116000
     42 H13          4.7860    -0.8560    21.6950 ha         1 I2D       0.122000
     43 H14          4.1710     0.4810    19.6710 h4         1 I2D       0.018100
     44 H15          8.0370     0.2470    18.1700 h4         1 I2D       0.016100
     45 H16         12.6050     2.5840    21.1350 ha         1 I2D       0.114000
     46 H17         15.0890     2.6160    21.2410 ha         1 I2D       0.117000
     47 H18         16.2830     1.2750    22.9750 ha         1 I2D       0.129000
     48 H19          9.2950    -7.5040    26.6850 hn         1 I2D       0.375000
@<TRIPOS>BOND
     1     1     2 ar  
     2     1    23 ar  
     3     1    29 1   
     4     2     3 ar  
     5     2    30 1   
     6     3     4 1   
     7     3    21 ar  
     8     4    24 1   
     9     4    31 1   
    10     4    32 1   
    11     5     6 ar  
    12     5    13 ar  
    13     5    24 1   
    14     6     7 ar  
    15     6    33 1   
    16     7     8 ar  
    17     7    34 1   
    18     8     9 1   
    19     8    12 ar  
    20     9    10 2   
    21     9    11 1   
    22    10    25 1   
    23    10    35 1   
    24    11    26 2   
    25    11    36 1   
    26    12    13 ar  
    27    12    37 1   
    28    13    38 1   
    29    14    15 1   
    30    14    24 1   
    31    14    28 2   
    32    15    16 1   
    33    15    39 1   
    34    15    40 1   
    35    16    17 ar  
    36    16    20 ar  
    37    17    18 ar  
    38    17    41 1   
    39    18    19 ar  
    40    18    42 1   
    41    19    27 ar  
    42    19    43 1   
    43    20    27 ar  
    44    20    44 1   
    45    21    22 ar  
    46    21    45 1   
    47    22    23 ar  
    48    22    46 1   
    49    23    47 1   
    50    25    26 1   
    51    25    48 1   
@<TRIPOS>SUBSTRUCTURE
     1 I2D         1 TEMP              0 ****  ****    0 ROOT
