@<TRIPOS>MOLECULE
I2D
   48    51     1     0     0
SMALL
bcc


@<TRIPOS>ATOM
      1 C02         13.9260     0.5250    21.1110 ca         1 I2D       0.031400
      2 C03         12.7470     0.2470    21.7870 ca         1 I2D      -0.105000
      3 C04         12.3060     1.1110    22.7800 ca         1 I2D      -0.074300
      4 C05         11.0420     0.8660    23.5700 c3         1 I2D       0.156300
      5 C07          9.9620    -1.3480    23.7870 ca         1 I2D       0.026600
      6 C08          9.0740    -1.3450    24.8560 ca         1 I2D      -0.124000
      7 C09          8.8710    -2.4930    25.6020 ca         1 I2D      -0.124000
      8 C10          9.5440    -3.6790    25.2970 ca         1 I2D       0.030000
      9 C11          9.3140    -4.8930    26.0760 cc         1 I2D      -0.231300
     10 C12         10.0200    -6.0810    26.0310 cd         1 I2D      -0.118300
     11 C15          8.3170    -5.1390    27.0470 cc         1 I2D       0.321200
     12 C16         10.4370    -3.6660    24.2230 ca         1 I2D      -0.124000
     13 C17         10.6490    -2.5160    23.4810 ca         1 I2D      -0.124000
     14 C18          9.4560     0.1220    21.9050 c          1 I2D       0.670100
     15 C19          8.5070    -0.9620    21.4180 c3         1 I2D      -0.105100
     16 C20          7.7290    -0.5220    20.2180 ca         1 I2D      -0.186600
     17 C21          6.5860     0.2590    20.3310 ca         1 I2D      -0.074000
     18 C22          5.9140     0.6450    19.1820 ca         1 I2D      -0.246300
     19 C23          6.4120     0.2350    17.9540 ca         1 I2D       0.404200
     20 C25          8.1350    -0.8760    18.9360 ca         1 I2D       0.416200
     21 C27         13.0660     2.2400    23.0790 ca         1 I2D      -0.126000
     22 C28         14.2450     2.5000    22.4000 ca         1 I2D      -0.116000
     23 C29         14.6900     1.6420    21.4040 ca         1 I2D      -0.122000
     24 N06         10.1670    -0.1590    23.0310 n          1 I2D      -0.414000
     25 N13          9.4410    -6.9040    26.9140 na         1 I2D       0.000400
     26 N14          8.4070    -6.3570    27.5410 nd         1 I2D      -0.516800
     27 N24          7.5020    -0.5130    17.8280 nb         1 I2D      -0.665000
     28 O26          9.5900     1.1800    21.3200 o          1 I2D      -0.568100
     29 CL01        14.4510    -0.5590    19.8620 cl         1 I2D      -0.118400
     30 H1          12.1800    -0.6350    21.5230 ha         1 I2D       0.144000
     31 H2          10.4980     1.8080    23.6670 h1         1 I2D       0.061700
     32 H3          11.3130     0.5620    24.5820 h1         1 I2D       0.061700
     33 H4           8.5350    -0.4380    25.1030 ha         1 I2D       0.141000
     34 H5           8.1770    -2.4570    26.4310 ha         1 I2D       0.134500
     35 H6          10.8750    -6.3900    25.4520 h4         1 I2D       0.175000
     36 H7           7.5380    -4.4760    27.3900 h4         1 I2D       0.039100
     37 H8          10.9730    -4.5660    23.9490 ha         1 I2D       0.134500
     38 H9          11.3440    -2.5340    22.6510 ha         1 I2D       0.141000
     39 H10          7.8310    -1.2470    22.2280 hc         1 I2D       0.072200
     40 H11          9.0850    -1.8600    21.1830 hc         1 I2D       0.072200
     41 H12          6.2250     0.5610    21.3060 ha         1 I2D       0.134000
     42 H13          5.0210     1.2520    19.2340 ha         1 I2D       0.140000
     43 H14          5.9100     0.5220    17.0370 h4         1 I2D       0.018100
     44 H15          9.0200    -1.4920    18.8060 h4         1 I2D       0.016100
     45 H16         12.7280     2.9260    23.8480 ha         1 I2D       0.132000
     46 H17         14.8250     3.3810    22.6420 ha         1 I2D       0.135000
     47 H18         15.6070     1.8440    20.8670 ha         1 I2D       0.147000
     48 H19          9.7200    -7.8480    27.1330 hn         1 I2D       0.324700
@<TRIPOS>BOND
     1     1     2 ar  
     2     1    23 ar  
     3     1    29 1   
     4     2     3 ar  
     5     2    30 1   
     6     3     4 1   
     7     3    21 ar  
     8     4    24 1   
     9     4    31 1   
    10     4    32 1   
    11     5     6 ar  
    12     5    13 ar  
    13     5    24 1   
    14     6     7 ar  
    15     6    33 1   
    16     7     8 ar  
    17     7    34 1   
    18     8     9 1   
    19     8    12 ar  
    20     9    10 2   
    21     9    11 1   
    22    10    25 1   
    23    10    35 1   
    24    11    26 2   
    25    11    36 1   
    26    12    13 ar  
    27    12    37 1   
    28    13    38 1   
    29    14    15 1   
    30    14    24 1   
    31    14    28 2   
    32    15    16 1   
    33    15    39 1   
    34    15    40 1   
    35    16    17 ar  
    36    16    20 ar  
    37    17    18 ar  
    38    17    41 1   
    39    18    19 ar  
    40    18    42 1   
    41    19    27 ar  
    42    19    43 1   
    43    20    27 ar  
    44    20    44 1   
    45    21    22 ar  
    46    21    45 1   
    47    22    23 ar  
    48    22    46 1   
    49    23    47 1   
    50    25    26 1   
    51    25    48 1   
@<TRIPOS>SUBSTRUCTURE
     1 I2D         1 TEMP              0 ****  ****    0 ROOT
