@<TRIPOS>MOLECULE
I2E
   23    24     1     0     0
SMALL
bcc


@<TRIPOS>ATOM
      1 C4          -2.5090    -0.6360    -0.1420 ca         1 I2E       0.018100
      2 C5          -1.7360    -1.7700    -0.1380 ca         1 I2E      -0.117000
      3 C6          -0.3840    -1.6120     0.1970 ca         1 I2E      -0.141000
      4 C3          -1.9760     0.6030     0.1720 ca         1 I2E       0.042100
      5 C2          -0.6530     0.7680     0.4990 ca         1 I2E      -0.115000
      6 C1           0.1650    -0.3750     0.5120 ca         1 I2E      -0.040300
      7 C7           1.6330    -0.2380     0.8100 c3         1 I2E      -0.022100
      8 C8           2.4350     0.0870    -0.4470 c3         1 I2E      -0.204400
      9 C9           3.9470     0.2860    -0.2400 c          1 I2E       0.927600
     10 O1           4.6120     0.5040    -1.2750 o          1 I2E      -0.843800
     11 C20         -4.1670     0.8390    -0.1060 c5         1 I2E       0.330200
     12 O2           4.3910     0.2220     0.9230 o          1 I2E      -0.843800
     13 O4          -3.8270    -0.4970    -0.4440 os         1 I2E      -0.334900
     14 O3          -2.9480     1.5460     0.0790 os         1 I2E      -0.329900
     15 H5          -2.1450    -2.7410    -0.3830 ha         1 I2E       0.136000
     16 H6           0.2510    -2.4890     0.2130 ha         1 I2E       0.138000
     17 H2          -0.2520     1.7440     0.7440 ha         1 I2E       0.153000
     18 H71C         1.7880     0.5450     1.5550 hc         1 I2E       0.052700
     19 H72C         2.0050    -1.1640     1.2530 hc         1 I2E       0.052700
     20 H81C         2.2870    -0.7060    -1.1890 hc         1 I2E       0.021700
     21 H82C         2.0310     0.9930    -0.9150 hc         1 I2E       0.021700
     22 H201        -4.7370     1.2920    -0.9170 h2         1 I2E       0.048200
     23 H202        -4.7480     0.8530     0.8230 h2         1 I2E       0.048200
@<TRIPOS>BOND
     1     1     2 ar  
     2     1     4 ar  
     3     1    13 1   
     4     2     3 ar  
     5     2    15 1   
     6     3     6 ar  
     7     3    16 1   
     8     4     5 ar  
     9     4    14 1   
    10     5     6 ar  
    11     5    17 1   
    12     6     7 1   
    13     7     8 1   
    14     7    18 1   
    15     7    19 1   
    16     8     9 1   
    17     8    20 1   
    18     8    21 1   
    19     9    10 1   
    20     9    12 1   
    21    11    13 1   
    22    11    14 1   
    23    11    22 1   
    24    11    23 1   
@<TRIPOS>SUBSTRUCTURE
     1 I2E         1 TEMP              0 ****  ****    0 ROOT
