@<TRIPOS>MOLECULE
I2E
   23    24     1     0     0
SMALL
No Charge or Current Charge


@<TRIPOS>ATOM
      1 C4          -2.5500    -0.6240    -0.1110 ca         1 I2E       0.018100
      2 C5          -1.7390    -1.7450    -0.3250 ca         1 I2E      -0.099000
      3 C6          -0.3580    -1.6250    -0.0540 ca         1 I2E      -0.123000
      4 C3          -2.0360     0.5560     0.3460 ca         1 I2E       0.042100
      5 C2          -0.6720     0.7060     0.6260 ca         1 I2E      -0.097000
      6 C1           0.1810    -0.4030     0.4230 ca         1 I2E      -0.040300
      7 C7           1.6720    -0.2830     0.7100 c3         1 I2E      -0.022100
      8 C8           2.4690     0.2050    -0.5230 c3         1 I2E      -0.204400
      9 C9           3.9630     0.3050    -0.1760 c          1 I2E       0.717000
     10 O1           4.6590    -0.6860    -0.3340 o          1 I2E      -0.738500
     11 C20         -4.2060     0.8370     0.0170 c5         1 I2E       0.376600
     12 O2           4.3760     1.3550     0.2910 o          1 I2E      -0.738500
     13 O4          -3.8910    -0.5640    -0.3120 os         1 I2E      -0.358100
     14 O3          -2.9870     1.5130     0.4930 os         1 I2E      -0.353100
     15 H5          -2.1610    -2.6790    -0.6880 ha         1 I2E       0.118000
     16 H6           0.2950    -2.4800    -0.2150 ha         1 I2E       0.120000
     17 H2          -0.2850     1.6550     0.9890 ha         1 I2E       0.135000
     18 H71C         1.8380     0.4090     1.5450 hc         1 I2E       0.052700
     19 H72C         2.0700    -1.2530     1.0370 hc         1 I2E       0.052700
     20 H81C         2.3040    -0.5480    -1.3030 hc         1 I2E       0.021700
     21 H82C         2.0630     1.1930    -0.7700 hc         1 I2E       0.021700
     22 H201        -4.5700     1.3440    -0.8840 h2         1 I2E       0.048200
     23 H202        -4.9710     0.8650     0.8020 h2         1 I2E       0.048200
@<TRIPOS>BOND
     1     1     2 ar  
     2     1     4 ar  
     3     1    13 1   
     4     2     3 ar  
     5     2    15 1   
     6     3     6 ar  
     7     3    16 1   
     8     4     5 ar  
     9     4    14 1   
    10     5     6 ar  
    11     5    17 1   
    12     6     7 1   
    13     7     8 1   
    14     7    18 1   
    15     7    19 1   
    16     8     9 1   
    17     8    20 1   
    18     8    21 1   
    19     9    10 1   
    20     9    12 1   
    21    11    13 1   
    22    11    14 1   
    23    11    22 1   
    24    11    23 1   
@<TRIPOS>SUBSTRUCTURE
     1 I2E         1 TEMP              0 ****  ****    0 ROOT
