@<TRIPOS>MOLECULE
I2G
   33    32     1     0     0
SMALL
abcg2


@<TRIPOS>ATOM
      1 C1          62.9230   111.0300   -32.7150 c3         1 I2G      -0.074400
      2 C2          63.2570   109.7820   -33.5300 c3         1 I2G      -0.072400
      3 C4          59.6250   112.9390   -32.0910 c2         1 I2G      -0.284200
      4 C5          61.0890   112.6650   -31.9450 c3         1 I2G      -0.011500
      5 C6          61.4380   111.3770   -32.7080 c3         1 I2G      -0.071400
      6 C7          59.7260   115.0760   -33.4150 c3         1 I2G      -0.054900
      7 C8          61.4470   112.5780   -30.4590 c3         1 I2G      -0.080100
      8 C10         57.5480   113.9790   -32.7230 ce         1 I2G      -0.252000
      9 C11         56.7710   114.9060   -33.2920 cf         1 I2G      -0.225200
     10 C12         55.2600   114.8710   -33.2540 c          1 I2G       0.695200
     11 C3          63.0160   109.9310   -35.0270 c3         1 I2G      -0.089100
     12 O13         54.7110   113.9160   -32.6650 o          1 I2G      -0.727500
     13 O14         54.6880   115.8230   -33.8280 o          1 I2G      -0.727500
     14 H1          63.2710   110.8760   -31.6900 hc         1 I2G       0.032200
     15 H2          63.4940   111.8800   -33.1050 hc         1 I2G       0.032200
     16 H3          62.6780   108.9360   -33.1470 hc         1 I2G       0.029200
     17 H4          64.3070   109.5270   -33.3650 hc         1 I2G       0.029200
     18 H5          58.9860   112.1890   -31.6240 ha         1 I2G       0.167000
     19 H6          61.6710   113.4790   -32.3860 hc         1 I2G       0.039700
     20 H7          61.0840   111.4880   -33.7360 hc         1 I2G       0.041200
     21 H8          60.8720   110.5420   -32.2790 hc         1 I2G       0.041200
     22 H9          59.4550   116.0410   -32.9820 hc         1 I2G       0.032367
     23 H10         60.8080   114.9830   -33.3640 hc         1 I2G       0.032367
     24 H11         59.4470   115.1190   -34.4700 hc         1 I2G       0.032367
     25 H12         61.1700   113.4940   -29.9370 hc         1 I2G       0.025367
     26 H13         60.9210   111.7490   -29.9790 hc         1 I2G       0.025367
     27 H14         62.5160   112.4250   -30.3100 hc         1 I2G       0.025367
     28 H15         57.0620   113.1530   -32.2100 ha         1 I2G       0.187000
     29 H16         57.2190   115.7460   -33.8150 ha         1 I2G       0.140000
     30 H17         63.3220   109.0340   -35.5660 hc         1 I2G       0.029700
     31 H18         61.9640   110.1050   -35.2590 hc         1 I2G       0.029700
     32 H19         63.5840   110.7700   -35.4330 hc         1 I2G       0.029700
     33 C9          59.0100   113.9560   -32.7180 ce         1 I2G      -0.027200
@<TRIPOS>BOND
     1     1     2 1   
     2     1     5 1   
     3     1    14 1   
     4     1    15 1   
     5     2    11 1   
     6     2    16 1   
     7     2    17 1   
     8     3     4 1   
     9     3    18 1   
    10     3    33 2   
    11     4     5 1   
    12     4     7 1   
    13     4    19 1   
    14     5    20 1   
    15     5    21 1   
    16     6    22 1   
    17     6    23 1   
    18     6    24 1   
    19     6    33 1   
    20     7    25 1   
    21     7    26 1   
    22     7    27 1   
    23     8     9 2   
    24     8    28 1   
    25     8    33 1   
    26     9    10 1   
    27     9    29 1   
    28    10    12 1   
    29    10    13 1   
    30    11    30 1   
    31    11    31 1   
    32    11    32 1   
@<TRIPOS>SUBSTRUCTURE
     1 I2G         1 TEMP              0 ****  ****    0 ROOT
