@<TRIPOS>MOLECULE
I2G
   33    32     1     0     0
SMALL
No Charge or Current Charge


@<TRIPOS>ATOM
      1 C1          62.9250   111.1480   -32.7100 c3         1 I2G      -0.074400
      2 C2          63.2690   109.9910   -33.6780 c3         1 I2G      -0.072400
      3 C4          59.5850   112.9930   -31.7740 c2         1 I2G      -0.284200
      4 C5          61.0570   112.6280   -31.6400 c3         1 I2G      -0.011500
      5 C6          61.4100   111.4510   -32.5880 c3         1 I2G      -0.071400
      6 C7          59.7800   114.5130   -33.7970 c3         1 I2G      -0.054900
      7 C8          61.4090   112.3370   -30.1620 c3         1 I2G      -0.080100
      8 C10         57.5460   114.0230   -32.6410 ce         1 I2G      -0.252000
      9 C11         56.8110   114.8870   -33.4140 cf         1 I2G      -0.225200
     10 C12         55.3300   115.0750   -33.3370 c          1 I2G       0.695200
     11 C3          62.9490   110.2800   -35.1600 c3         1 I2G      -0.089100
     12 O13         54.6890   114.4180   -32.5320 o          1 I2G      -0.727500
     13 O14         54.8270   115.8890   -34.0950 o          1 I2G      -0.727500
     14 H1          63.3220   110.8850   -31.7220 hc         1 I2G       0.032200
     15 H2          63.4530   112.0540   -33.0300 hc         1 I2G       0.032200
     16 H3          62.7390   109.0830   -33.3650 hc         1 I2G       0.029200
     17 H4          64.3400   109.7730   -33.5920 hc         1 I2G       0.029200
     18 H5          58.9570   112.5120   -31.0230 ha         1 I2G       0.167000
     19 H6          61.6650   113.4930   -31.9340 hc         1 I2G       0.039700
     20 H7          61.0170   111.6850   -33.5840 hc         1 I2G       0.041200
     21 H8          60.8850   110.5480   -32.2530 hc         1 I2G       0.041200
     22 H9          59.8690   115.5880   -33.5970 hc         1 I2G       0.032367
     23 H10         60.7940   114.1210   -33.9270 hc         1 I2G       0.032367
     24 H11         59.2820   114.3930   -34.7660 hc         1 I2G       0.032367
     25 H12         61.0920   113.1690   -29.5220 hc         1 I2G       0.025367
     26 H13         60.9100   111.4260   -29.8110 hc         1 I2G       0.025367
     27 H14         62.4900   112.2120   -30.0280 hc         1 I2G       0.025367
     28 H15         57.0040   113.4270   -31.9030 ha         1 I2G       0.187000
     29 H16         57.3120   115.5090   -34.1520 ha         1 I2G       0.140000
     30 H17         63.3060   109.4570   -35.7920 hc         1 I2G       0.029700
     31 H18         61.8700   110.3830   -35.3210 hc         1 I2G       0.029700
     32 H19         63.4410   111.2020   -35.4910 hc         1 I2G       0.029700
     33 C9          59.0050   113.8130   -32.6840 ce         1 I2G      -0.027200
@<TRIPOS>BOND
     1     1     2 1   
     2     1     5 1   
     3     1    14 1   
     4     1    15 1   
     5     2    11 1   
     6     2    16 1   
     7     2    17 1   
     8     3     4 1   
     9     3    18 1   
    10     3    33 2   
    11     4     5 1   
    12     4     7 1   
    13     4    19 1   
    14     5    20 1   
    15     5    21 1   
    16     6    22 1   
    17     6    23 1   
    18     6    24 1   
    19     6    33 1   
    20     7    25 1   
    21     7    26 1   
    22     7    27 1   
    23     8     9 2   
    24     8    28 1   
    25     8    33 1   
    26     9    10 1   
    27     9    29 1   
    28    10    12 1   
    29    10    13 1   
    30    11    30 1   
    31    11    31 1   
    32    11    32 1   
@<TRIPOS>SUBSTRUCTURE
     1 I2G         1 TEMP              0 ****  ****    0 ROOT
