@<TRIPOS>MOLECULE
I2H
   48    51     1     0     0
SMALL
bcc


@<TRIPOS>ATOM
      1 N7          -2.0340     1.4350     1.2060 nv         1 I2H      -0.954500
      2 C6          -2.7300     0.5590     0.4530 ca         1 I2H       0.753200
      3 N5          -3.6680    -0.1460     1.0790 nb         1 I2H      -0.856000
      4 C3          -4.4050    -0.9840     0.3540 ca         1 I2H       0.928900
      5 N4          -5.3820    -1.6620     1.0060 nv         1 I2H      -0.938500
      6 N2          -4.2940    -1.1890    -0.9580 nb         1 I2H      -0.800000
      7 C1          -3.3460    -0.4760    -1.5600 ca         1 I2H       0.497200
      8 C8          -2.5090     0.4210    -0.9390 ca         1 I2H      -0.436900
      9 C9          -1.4740     1.1960    -1.7090 c3         1 I2H       0.040200
     10 C10         -0.0650     1.0710    -1.1740 ca         1 I2H      -0.006300
     11 C21          0.6000     2.2230    -0.7580 ca         1 I2H      -0.265000
     12 C18          1.8740     2.1530    -0.2010 ca         1 I2H       0.159100
     13 O19          2.5810     3.2130     0.2210 os         1 I2H      -0.297900
     14 C20          1.9970     4.4970     0.1200 c3         1 I2H       0.121700
     15 C11          0.5540    -0.1710    -1.0490 ca         1 I2H      -0.153800
     16 C12          1.8180    -0.2360    -0.4490 ca         1 I2H       0.167100
     17 O13          2.4570    -1.4110    -0.2910 os         1 I2H      -0.306900
     18 C15          2.4830     0.9050    -0.0210 ca         1 I2H       0.023100
     19 O16          3.6930     0.8140     0.5890 os         1 I2H      -0.306900
     20 C17          4.8020     0.8560    -0.3000 c3         1 I2H       0.123700
     21 C27         -0.0050    -1.4280    -1.5270 ce         1 I2H      -0.069200
     22 C28          0.5370    -2.5860    -1.1560 c2         1 I2H      -0.212200
     23 C14          1.6850    -2.6060    -0.1940 c6         1 I2H       0.221300
     24 C24          1.2210    -2.8850     1.2220 cx         1 I2H      -0.157700
     25 C26          1.9390    -2.3530     2.4220 cx         1 I2H      -0.121400
     26 C25          0.5570    -1.8640     2.0890 cx         1 I2H      -0.121400
     27 H1          -1.1580     1.8060     0.8780 hn         1 I2H       0.434300
     28 H2          -2.1380     1.3720     2.2050 hn         1 I2H       0.434300
     29 H3          -5.3210    -1.7190     2.0080 hn         1 I2H       0.429300
     30 H4          -5.7700    -2.4670     0.5450 hn         1 I2H       0.429300
     31 H5          -3.2410    -0.6360    -2.6310 h4         1 I2H       0.011100
     32 H6          -1.5060     0.8640    -2.7510 hc         1 I2H       0.053700
     33 H7          -1.7370     2.2580    -1.7330 hc         1 I2H       0.053700
     34 H8           0.1020     3.1770    -0.8790 ha         1 I2H       0.140000
     35 H9           2.7290     5.1990     0.5110 h1         1 I2H       0.043367
     36 H10          1.7730     4.7640    -0.9160 h1         1 I2H       0.043367
     37 H11          1.0810     4.5750     0.7110 h1         1 I2H       0.043367
     38 H12          4.8220     1.7820    -0.8790 h1         1 I2H       0.035367
     39 H13          5.7040     0.8080     0.3080 h1         1 I2H       0.035367
     40 H14          4.8000     0.0090    -0.9900 h1         1 I2H       0.035367
     41 H15         -0.8360    -1.4070    -2.2190 ha         1 I2H       0.139000
     42 H17          0.1570    -3.5350    -1.5120 ha         1 I2H       0.141000
     43 H19          2.3830    -3.3990    -0.4740 h1         1 I2H       0.083700
     44 H20          0.8340    -3.8960     1.3140 hc         1 I2H       0.079700
     45 H21          2.0660    -3.0090     3.2730 hc         1 I2H       0.075450
     46 H22          2.7610    -1.6660     2.2600 hc         1 I2H       0.075450
     47 H23          0.4450    -0.8490     1.7320 hc         1 I2H       0.075450
     48 H24         -0.2670    -2.1980     2.7080 hc         1 I2H       0.075450
@<TRIPOS>BOND
     1     1     2 1   
     2     1    27 1   
     3     1    28 1   
     4     2     3 ar  
     5     2     8 ar  
     6     3     4 ar  
     7     4     5 1   
     8     4     6 ar  
     9     5    29 1   
    10     5    30 1   
    11     6     7 ar  
    12     7     8 ar  
    13     7    31 1   
    14     8     9 1   
    15     9    10 1   
    16     9    32 1   
    17     9    33 1   
    18    10    11 ar  
    19    10    15 ar  
    20    11    12 ar  
    21    11    34 1   
    22    12    13 1   
    23    12    18 ar  
    24    13    14 1   
    25    14    35 1   
    26    14    36 1   
    27    14    37 1   
    28    15    16 ar  
    29    15    21 1   
    30    16    17 1   
    31    16    18 ar  
    32    17    23 1   
    33    18    19 1   
    34    19    20 1   
    35    20    38 1   
    36    20    39 1   
    37    20    40 1   
    38    21    22 2   
    39    21    41 1   
    40    22    23 1   
    41    22    42 1   
    42    23    24 1   
    43    23    43 1   
    44    24    25 1   
    45    24    26 1   
    46    24    44 1   
    47    25    26 1   
    48    25    45 1   
    49    25    46 1   
    50    26    47 1   
    51    26    48 1   
@<TRIPOS>SUBSTRUCTURE
     1 I2H         1 TEMP              0 ****  ****    0 ROOT
