@<TRIPOS>MOLECULE
I2H
   48    51     1     0     0
SMALL
No Charge or Current Charge


@<TRIPOS>ATOM
      1 N7          -2.0340     1.5940     1.1410 nv         1 I2H      -1.064900
      2 C6          -2.7350     0.6610     0.4580 ca         1 I2H       0.424900
      3 N5          -3.6120    -0.0260     1.1950 nb         1 I2H      -0.330000
      4 C3          -4.3190    -0.9500     0.5380 ca         1 I2H       0.402900
      5 N4          -5.2090    -1.6500     1.2790 nv         1 I2H      -1.048900
      6 N2          -4.2520    -1.2640    -0.7620 nb         1 I2H      -0.274000
      7 C1          -3.3640    -0.5630    -1.4920 ca         1 I2H       0.168900
      8 C8          -2.5530     0.4340    -0.9180 ca         1 I2H      -0.306300
      9 C9          -1.5530     1.2140    -1.7800 c3         1 I2H       0.040200
     10 C10         -0.1170     1.1500    -1.2460 ca         1 I2H      -0.006300
     11 C21          0.4790     2.3310    -0.7710 ca         1 I2H      -0.247000
     12 C18          1.7860     2.3250    -0.2420 ca         1 I2H       0.159100
     13 O19          2.3870     3.4880     0.2110 os         1 I2H      -0.321100
     14 C20          1.7350     4.7700     0.1680 c3         1 I2H       0.144900
     15 C11          0.6090    -0.0620    -1.1820 ca         1 I2H      -0.153800
     16 C12          1.9050    -0.0890    -0.6090 ca         1 I2H       0.167100
     17 O13          2.5650    -1.3050    -0.5030 os         1 I2H      -0.330100
     18 C15          2.5180     1.1190    -0.1620 ca         1 I2H       0.023100
     19 O16          3.8090     1.2030     0.3640 os         1 I2H      -0.330100
     20 C17          4.8040     0.1700     0.2580 c3         1 I2H       0.146900
     21 C27          0.0620    -1.3410    -1.7100 ce         1 I2H      -0.119200
     22 C28          0.6440    -2.5090    -1.3890 c2         1 I2H      -0.262200
     23 C14          1.8250    -2.5500    -0.4420 c6         1 I2H       0.244500
     24 C24          1.3920    -2.9110     1.0000 cx         1 I2H      -0.157700
     25 C26          1.9930    -2.2510     2.2250 cx         1 I2H      -0.121400
     26 C25          0.5560    -1.9730     1.8470 cx         1 I2H      -0.121400
     27 H1          -1.1630     1.9050     0.7210 hn         1 I2H       0.489500
     28 H2          -2.0530     1.5480     2.1550 hn         1 I2H       0.489500
     29 H3          -5.1370    -1.5990     2.2910 hn         1 I2H       0.484500
     30 H4          -5.6040    -2.5010     0.8880 hn         1 I2H       0.484500
     31 H5          -3.3040    -0.8080    -2.5520 h4         1 I2H       0.011100
     32 H6          -1.5720     0.8520    -2.8150 hc         1 I2H       0.053700
     33 H7          -1.8880     2.2570    -1.8480 hc         1 I2H       0.053700
     34 H8          -0.0860     3.2570    -0.8310 ha         1 I2H       0.122000
     35 H9           2.3960     5.5460     0.5740 h1         1 I2H       0.043367
     36 H10          1.4830     5.0450    -0.8640 h1         1 I2H       0.043367
     37 H11          0.8150     4.7610     0.7670 h1         1 I2H       0.043367
     38 H12          4.9350    -0.1420    -0.7860 h1         1 I2H       0.035367
     39 H13          5.7700     0.5400     0.6240 h1         1 I2H       0.035367
     40 H14          4.5370    -0.7040     0.8640 h1         1 I2H       0.035367
     41 H15         -0.7970    -1.3050    -2.3800 ha         1 I2H       0.189000
     42 H17          0.2770    -3.4620    -1.7700 ha         1 I2H       0.191000
     43 H19          2.5110    -3.3450    -0.7710 h1         1 I2H       0.083700
     44 H20          1.1490    -3.9670     1.0890 hc         1 I2H       0.079700
     45 H21          2.1760    -2.8750     3.0960 hc         1 I2H       0.075450
     46 H22          2.7060    -1.4410     2.0950 hc         1 I2H       0.075450
     47 H23          0.3170    -0.9880     1.4570 hc         1 I2H       0.075450
     48 H24         -0.2240    -2.4120     2.4640 hc         1 I2H       0.075450
@<TRIPOS>BOND
     1     1     2 1   
     2     1    27 1   
     3     1    28 1   
     4     2     3 ar  
     5     2     8 ar  
     6     3     4 ar  
     7     4     5 1   
     8     4     6 ar  
     9     5    29 1   
    10     5    30 1   
    11     6     7 ar  
    12     7     8 ar  
    13     7    31 1   
    14     8     9 1   
    15     9    10 1   
    16     9    32 1   
    17     9    33 1   
    18    10    11 ar  
    19    10    15 ar  
    20    11    12 ar  
    21    11    34 1   
    22    12    13 1   
    23    12    18 ar  
    24    13    14 1   
    25    14    35 1   
    26    14    36 1   
    27    14    37 1   
    28    15    16 ar  
    29    15    21 1   
    30    16    17 1   
    31    16    18 ar  
    32    17    23 1   
    33    18    19 1   
    34    19    20 1   
    35    20    38 1   
    36    20    39 1   
    37    20    40 1   
    38    21    22 2   
    39    21    41 1   
    40    22    23 1   
    41    22    42 1   
    42    23    24 1   
    43    23    43 1   
    44    24    25 1   
    45    24    26 1   
    46    24    44 1   
    47    25    26 1   
    48    25    45 1   
    49    25    46 1   
    50    26    47 1   
    51    26    48 1   
@<TRIPOS>SUBSTRUCTURE
     1 I2H         1 TEMP              0 ****  ****    0 ROOT
