@<TRIPOS>MOLECULE
I2J
   18    17     1     0     0
SMALL
No Charge or Current Charge


@<TRIPOS>ATOM
      1 C4          56.1210    -2.2390    15.4180 c3         1 I2J       0.158600
      2 C3          56.8040    -3.4000    14.6540 c3         1 I2J       0.157600
      3 C2          57.4940    -5.7060    14.9450 c3         1 I2J       0.162600
      4 C1          57.5020    -6.8510    15.9970 c3         1 I2J       0.151800
      5 N           56.1440    -7.2470    16.4500 n8         1 I2J      -0.995200
      6 O2          56.8740    -4.5420    15.5310 os         1 I2J      -0.471000
      7 O4          56.0260    -1.0670    14.5870 oh         1 I2J      -0.724000
      8 H1          55.1200    -2.5620    15.7340 h1         1 I2J       0.029700
      9 H2          56.7040    -2.0170    16.3220 h1         1 I2J       0.029700
     10 H3          57.8110    -3.0900    14.3430 h1         1 I2J       0.034200
     11 H4          56.2200    -3.6390    13.7550 h1         1 I2J       0.034200
     12 H5          56.9440    -6.0330    14.0530 h1         1 I2J       0.030700
     13 H6          58.5280    -5.4850    14.6490 h1         1 I2J       0.030700
     14 H7          58.0050    -7.7320    15.5750 h1         1 I2J       0.034200
     15 H8          58.0790    -6.5190    16.8720 h1         1 I2J       0.034200
     16 H9          56.2280    -7.8420    17.2830 hn         1 I2J       0.397500
     17 H11         55.6740    -6.4030    16.7990 hn         1 I2J       0.397500
     18 H10         55.5850    -0.3680    15.1270 ho         1 I2J       0.508000
@<TRIPOS>BOND
     1     1     2 1   
     2     1     7 1   
     3     1     8 1   
     4     1     9 1   
     5     2     6 1   
     6     2    10 1   
     7     2    11 1   
     8     3     4 1   
     9     3     6 1   
    10     3    12 1   
    11     3    13 1   
    12     4     5 1   
    13     4    14 1   
    14     4    15 1   
    15     5    16 1   
    16     5    17 1   
    17     7    18 1   
@<TRIPOS>SUBSTRUCTURE
     1 I2J         1 TEMP              0 ****  ****    0 ROOT
