@<TRIPOS>MOLECULE
I2J
   18    17     1     0     0
SMALL
abcg2


@<TRIPOS>ATOM
      1 C4          56.1500    -2.2660    15.4390 c3         1 I2J       0.158600
      2 C3          56.7840    -3.4290    14.7020 c3         1 I2J       0.157600
      3 C2          57.4710    -5.6510    15.0090 c3         1 I2J       0.162600
      4 C1          57.4890    -6.7700    16.0250 c3         1 I2J       0.151800
      5 N           56.1410    -7.1860    16.3780 n8         1 I2J      -0.995200
      6 O2          56.8910    -4.5080    15.5920 os         1 I2J      -0.471000
      7 O4          56.0470    -1.1940    14.5300 oh         1 I2J      -0.724000
      8 H1          55.1680    -2.5720    15.8220 h1         1 I2J       0.029700
      9 H2          56.7680    -2.0070    16.3080 h1         1 I2J       0.029700
     10 H3          57.7730    -3.1330    14.3200 h1         1 I2J       0.034200
     11 H4          56.1710    -3.6980    13.8290 h1         1 I2J       0.034200
     12 H5          56.9010    -5.9650    14.1230 h1         1 I2J       0.030700
     13 H6          58.4970    -5.4390    14.6760 h1         1 I2J       0.030700
     14 H7          58.0060    -7.6160    15.5670 h1         1 I2J       0.034200
     15 H8          58.1020    -6.4600    16.8830 h1         1 I2J       0.034200
     16 H9          56.1900    -7.9590    17.0290 hn         1 I2J       0.397500
     17 H11         55.6790    -6.4370    16.8780 hn         1 I2J       0.397500
     18 H10         55.6350    -0.4540    14.9820 ho         1 I2J       0.508000
@<TRIPOS>BOND
     1     1     2 1   
     2     1     7 1   
     3     1     8 1   
     4     1     9 1   
     5     2     6 1   
     6     2    10 1   
     7     2    11 1   
     8     3     4 1   
     9     3     6 1   
    10     3    12 1   
    11     3    13 1   
    12     4     5 1   
    13     4    14 1   
    14     4    15 1   
    15     5    16 1   
    16     5    17 1   
    17     7    18 1   
@<TRIPOS>SUBSTRUCTURE
     1 I2J         1 TEMP              0 ****  ****    0 ROOT
