@<TRIPOS>MOLECULE
I2K
   81    82     1     0     0
SMALL
bcc


@<TRIPOS>ATOM
      1 N1          -7.8360     7.1090    24.5660 ns         1 I2K      -0.540900
      2 C4          -6.6990     8.7230    23.1250 c6         1 I2K       0.146100
      3 C5          -7.7260     9.5620    22.3610 c3         1 I2K       0.151100
      4 C6          -7.2740     9.8930    20.9220 c3         1 I2K       0.126100
      5 C7          -8.4670    10.1020    19.9960 c3         1 I2K       0.091400
      6 C8          -4.3650     8.7570    23.6020 c6         1 I2K       0.189600
      7 C10         -2.2120     9.2460    21.1560 c6         1 I2K       0.106100
      8 C13         -3.5840     8.1220    18.8840 c6         1 I2K       0.358900
      9 C15         -5.2950     7.0930    16.1620 c3         1 I2K       0.136100
     10 C17         -2.7090     7.1180    15.7540 c3         1 I2K       0.161100
     11 C20         -3.7590     7.4840    20.2550 c6         1 I2K       0.117100
     12 C21         -3.3210     9.8140    24.1050 c          1 I2K       0.931600
     13 C22         -4.7380     7.7760    24.7150 c6         1 I2K      -0.084400
     14 C1          -9.4360     5.4310    25.2350 c3         1 I2K      -0.176100
     15 C2          -8.8390     6.8070    25.4050 c          1 I2K       0.674100
     16 O1          -9.2650     7.5900    26.2470 o          1 I2K      -0.645100
     17 C3          -7.1520     8.3780    24.5620 c6         1 I2K       0.046700
     18 O2          -8.9240     8.8190    22.3790 oh         1 I2K      -0.603800
     19 O3          -6.4920    11.0650    20.9780 oh         1 I2K      -0.563800
     20 O4          -7.9570    10.5200    18.7380 oh         1 I2K      -0.625800
     21 O5          -5.4990     9.4500    23.1640 os         1 I2K      -0.377600
     22 O6          -3.8130     7.9740    22.5570 os         1 I2K      -0.434600
     23 C9          -3.5830     8.5830    21.3060 c6         1 I2K       0.135100
     24 O7          -1.2050     8.3130    21.4640 oh         1 I2K      -0.579800
     25 C11         -2.1060     9.7550    19.7140 c6         1 I2K       0.122100
     26 C12         -0.7520    10.3570    19.3770 c3         1 I2K       0.138400
     27 O8          -0.5300    11.4430    20.2460 oh         1 I2K      -0.586800
     28 O9          -2.3090     8.6990    18.7950 os         1 I2K      -0.452600
     29 O10         -3.6920     7.1490    17.9110 os         1 I2K      -0.404600
     30 C14         -3.9080     7.6000    16.5800 c3         1 I2K       0.160100
     31 O11         -5.4580     7.3430    14.7850 oh         1 I2K      -0.575800
     32 C16         -6.4060     7.7310    16.9880 c3         1 I2K       0.104400
     33 O12         -6.3560     9.1290    16.8720 oh         1 I2K      -0.614800
     34 O13         -2.6660     7.8160    14.5390 oh         1 I2K      -0.576800
     35 C18         -2.6890     5.6040    15.5090 c3         1 I2K      -0.014900
     36 O14         -1.5040     5.3440    14.7820 oh         1 I2K      -0.606800
     37 C19         -2.6070     4.8170    16.8020 c          1 I2K       0.569900
     38 O15         -3.4360     4.0300    17.1780 o          1 I2K      -0.513100
     39 O16         -5.0360     6.9040    20.3130 oh         1 I2K      -0.612800
     40 O17         -2.3160     9.3250    24.6500 o          1 I2K      -0.791800
     41 O18         -3.5770    11.0120    23.9120 o          1 I2K      -0.791800
     42 C23         -5.9090     8.3560    25.4890 c6         1 I2K       0.138100
     43 O19         -6.1100     7.5920    26.6500 oh         1 I2K      -0.600800
     44 H4          -7.5280     6.4010    23.9170 hn         1 I2K       0.313500
     45 H6          -6.5710     7.7810    22.5690 h1         1 I2K       0.029700
     46 H7          -7.8540    10.5190    22.8870 h1         1 I2K       0.066700
     47 H9          -6.6870     9.0500    20.5230 h1         1 I2K       0.059700
     48 H11         -9.0390     9.1770    19.8950 h1         1 I2K       0.030700
     49 H12         -9.1310    10.8720    20.4070 h1         1 I2K       0.030700
     50 H15         -2.1700    10.1180    21.8150 h1         1 I2K       0.107700
     51 H21         -4.3550     8.9010    18.7400 h2         1 I2K       0.034700
     52 H23         -5.3410     6.0130    16.3710 h1         1 I2K       0.044700
     53 H28         -1.8200     7.3600    16.3580 h1         1 I2K       0.059700
     54 H33         -2.9770     6.7210    20.3860 h1         1 I2K       0.077700
     55 H35         -5.0220     6.8060    24.2930 hc         1 I2K       0.065700
     56 H36         -3.8800     7.6060    25.3630 hc         1 I2K       0.065700
     57 H1          -9.3980     4.8980    26.1840 hc         1 I2K       0.052033
     58 H2         -10.4860     5.5270    24.9590 hc         1 I2K       0.052033
     59 H3          -8.9360     4.8280    24.4790 hc         1 I2K       0.052033
     60 H5          -7.8520     9.1340    24.9250 h1         1 I2K       0.074700
     61 H8          -9.6700     9.4250    22.3950 ho         1 I2K       0.399000
     62 H10         -6.2800    11.3180    20.0730 ho         1 I2K       0.410000
     63 H13         -8.6720    10.9060    18.2230 ho         1 I2K       0.411000
     64 H14         -4.3370     9.3560    21.1120 h1         1 I2K       0.064700
     65 H16         -0.4480     8.7840    21.8230 ho         1 I2K       0.406000
     66 H17         -2.8800    10.5290    19.5740 h1         1 I2K       0.052700
     67 H18          0.0220     9.5870    19.4760 h1         1 I2K       0.026700
     68 H19         -0.7610    10.6720    18.3260 h1         1 I2K       0.026700
     69 H20          0.3780    11.7380    20.1350 ho         1 I2K       0.399000
     70 H22         -3.8960     8.6950    16.5350 h1         1 I2K       0.093700
     71 H24         -6.3160     6.9980    14.5210 ho         1 I2K       0.393000
     72 H25         -7.3630     7.3260    16.6230 h1         1 I2K       0.028200
     73 H26         -6.3130     7.3950    18.0270 h1         1 I2K       0.028200
     74 H27         -6.9120     9.5230    17.5630 ho         1 I2K       0.428000
     75 H29         -1.8950     7.5030    14.0530 ho         1 I2K       0.411000
     76 H30         -3.5790     5.2970    14.9490 h1         1 I2K       0.063700
     77 H31         -1.6000     4.5080    14.3150 ho         1 I2K       0.407000
     78 H32         -1.6670     4.9770    17.3620 h4         1 I2K       0.007200
     79 H34         -5.1760     6.5980    21.2160 ho         1 I2K       0.422000
     80 H37         -5.6810     9.3970    25.7580 h1         1 I2K       0.070700
     81 H38         -6.8590     7.9580    27.1310 ho         1 I2K       0.408000
@<TRIPOS>BOND
     1     1    15 1   
     2     1    17 1   
     3     1    44 1   
     4     2     3 1   
     5     2    17 1   
     6     2    21 1   
     7     2    45 1   
     8     3     4 1   
     9     3    18 1   
    10     3    46 1   
    11     4     5 1   
    12     4    19 1   
    13     4    47 1   
    14     5    20 1   
    15     5    48 1   
    16     5    49 1   
    17     6    12 1   
    18     6    13 1   
    19     6    21 1   
    20     6    22 1   
    21     7    23 1   
    22     7    24 1   
    23     7    25 1   
    24     7    50 1   
    25     8    11 1   
    26     8    28 1   
    27     8    29 1   
    28     8    51 1   
    29     9    30 1   
    30     9    31 1   
    31     9    32 1   
    32     9    52 1   
    33    10    30 1   
    34    10    34 1   
    35    10    35 1   
    36    10    53 1   
    37    11    23 1   
    38    11    39 1   
    39    11    54 1   
    40    12    40 1   
    41    12    41 1   
    42    13    42 1   
    43    13    55 1   
    44    13    56 1   
    45    14    15 1   
    46    14    57 1   
    47    14    58 1   
    48    14    59 1   
    49    15    16 2   
    50    17    42 1   
    51    17    60 1   
    52    18    61 1   
    53    19    62 1   
    54    20    63 1   
    55    22    23 1   
    56    23    64 1   
    57    24    65 1   
    58    25    26 1   
    59    25    28 1   
    60    25    66 1   
    61    26    27 1   
    62    26    67 1   
    63    26    68 1   
    64    27    69 1   
    65    29    30 1   
    66    30    70 1   
    67    31    71 1   
    68    32    33 1   
    69    32    72 1   
    70    32    73 1   
    71    33    74 1   
    72    34    75 1   
    73    35    36 1   
    74    35    37 1   
    75    35    76 1   
    76    36    77 1   
    77    37    38 2   
    78    37    78 1   
    79    39    79 1   
    80    42    43 1   
    81    42    80 1   
    82    43    81 1   
@<TRIPOS>SUBSTRUCTURE
     1 I2K         1 TEMP              0 ****  ****    0 ROOT
