@<TRIPOS>MOLECULE
I2K
   81    82     1     0     0
SMALL
No Charge or Current Charge


@<TRIPOS>ATOM
      1 N1          -7.7980     7.0500    24.4860 ns         1 I2K      -0.473900
      2 C4          -6.5460     8.7820    23.1690 c6         1 I2K       0.169300
      3 C5          -7.5850     9.5960    22.2950 c3         1 I2K       0.174300
      4 C6          -7.1270     9.8790    20.8160 c3         1 I2K       0.149300
      5 C7          -8.2500    10.4210    19.8880 c3         1 I2K       0.114600
      6 C8          -4.1710     8.7630    23.8420 c6         1 I2K       0.236000
      7 C10         -2.4970     9.5210    21.1990 c6         1 I2K       0.129300
      8 C13         -3.4920     7.9200    18.9580 c6         1 I2K       0.405300
      9 C15         -5.2090     7.1610    16.2040 c3         1 I2K       0.159300
     10 C17         -2.6350     6.6670    15.6520 c3         1 I2K       0.184300
     11 C20         -3.4530     7.2860    20.3850 c6         1 I2K       0.140300
     12 C21         -3.0100     9.7110    24.4360 c          1 I2K       0.721000
     13 C22         -4.6420     7.8580    25.0270 c6         1 I2K      -0.084400
     14 C1          -9.3810     5.2500    24.9770 c3         1 I2K      -0.176100
     15 C2          -8.7060     6.5510    25.3870 c          1 I2K       0.607100
     16 O1          -8.9270     7.1090    26.4520 o          1 I2K      -0.645100
     17 C3          -7.1090     8.3650    24.5760 c6         1 I2K       0.046700
     18 O2          -8.8460     8.8860    22.2540 oh         1 I2K      -0.726000
     19 O3          -6.0680    10.8450    20.7570 oh         1 I2K      -0.626000
     20 O4          -7.6980    10.7770    18.6030 oh         1 I2K      -0.748000
     21 O5          -5.3160     9.5350    23.3390 os         1 I2K      -0.424000
     22 O6          -3.7010     7.8860    22.7620 os         1 I2K      -0.481000
     23 C9          -3.6130     8.4430    21.4100 c6         1 I2K       0.158300
     24 O7          -1.2230     9.0040    21.6430 oh         1 I2K      -0.702000
     25 C11         -2.4950     9.9700    19.6950 c6         1 I2K       0.145300
     26 C12         -1.3510    10.9700    19.3380 c3         1 I2K       0.161600
     27 O8          -1.4440    12.2050    20.0700 oh         1 I2K      -0.709000
     28 O9          -2.3830     8.8250    18.8140 os         1 I2K      -0.499000
     29 O10         -3.4330     6.9320    17.9130 os         1 I2K      -0.451000
     30 C14         -3.6880     7.3930    16.5630 c3         1 I2K       0.183300
     31 O11         -5.4890     7.5500    14.8480 oh         1 I2K      -0.698000
     32 C16         -6.2200     7.9310    17.1030 c3         1 I2K       0.127600
     33 O12         -6.0430     9.3500    16.9470 oh         1 I2K      -0.677000
     34 O13         -2.4600     7.3320    14.3920 oh         1 I2K      -0.699000
     35 C18         -2.9190     5.1710    15.3400 c3         1 I2K       0.008300
     36 O14         -1.9480     4.7000    14.3590 oh         1 I2K      -0.669000
     37 C19         -2.9150     4.3120    16.6350 c          1 I2K       0.569900
     38 O15         -3.7100     3.4000    16.8380 o          1 I2K      -0.513100
     39 O16         -4.4780     6.2850    20.6110 oh         1 I2K      -0.735000
     40 O17         -1.8550     9.3920    24.1650 o          1 I2K      -0.686500
     41 O18         -3.2730    10.9040    24.5460 o          1 I2K      -0.686500
     42 C23         -5.9550     8.3880    25.6400 c6         1 I2K       0.161300
     43 O19         -6.2870     7.6390    26.8170 oh         1 I2K      -0.663000
     44 H4          -7.6970     6.5200    23.6290 hn         1 I2K       0.313500
     45 H6          -6.3000     7.8710    22.6050 h1         1 I2K       0.029700
     46 H7          -7.7270    10.5660    22.7920 h1         1 I2K       0.066700
     47 H9          -6.7830     8.9280    20.3870 h1         1 I2K       0.059700
     48 H11         -9.0260     9.6540    19.7630 h1         1 I2K       0.030700
     49 H12         -8.7160    11.2970    20.3600 h1         1 I2K       0.030700
     50 H15         -2.7690    10.4090    21.7900 h1         1 I2K       0.107700
     51 H21         -4.4230     8.4920    18.8650 h2         1 I2K       0.034700
     52 H23         -5.4210     6.0900    16.3270 h1         1 I2K       0.044700
     53 H28         -1.6780     6.7080    16.1930 h1         1 I2K       0.059700
     54 H33         -2.4580     6.8370    20.5220 h1         1 I2K       0.077700
     55 H35         -4.7890     6.8260    24.6820 hc         1 I2K       0.065700
     56 H36         -3.8640     7.8060    25.8000 hc         1 I2K       0.065700
     57 H1         -10.0830     4.8810    25.7330 hc         1 I2K       0.052033
     58 H2          -9.8690     5.3920    24.0060 hc         1 I2K       0.052033
     59 H3          -8.6110     4.5060    24.7430 hc         1 I2K       0.052033
     60 H5          -7.8550     9.1110    24.8840 h1         1 I2K       0.074700
     61 H8          -9.5630     9.5440    22.4060 ho         1 I2K       0.498000
     62 H10         -6.2020    11.2730    19.8790 ho         1 I2K       0.449000
     63 H13         -8.3960    11.2970    18.1320 ho         1 I2K       0.510000
     64 H14         -4.5690     8.9140    21.1680 h1         1 I2K       0.064700
     65 H16         -1.3010     9.0260    22.6420 ho         1 I2K       0.505000
     66 H17         -3.4480    10.4760    19.4770 h1         1 I2K       0.052700
     67 H18         -0.3850    10.4850    19.5330 h1         1 I2K       0.026700
     68 H19         -1.4020    11.1740    18.2590 h1         1 I2K       0.026700
     69 H20         -0.6690    12.7540    19.8060 ho         1 I2K       0.498000
     70 H22         -3.4800     8.4690    16.4880 h1         1 I2K       0.093700
     71 H24         -5.7040     8.5110    14.9090 ho         1 I2K       0.492000
     72 H25         -7.2400     7.6480    16.8090 h1         1 I2K       0.028200
     73 H26         -6.1050     7.6280    18.1510 h1         1 I2K       0.028200
     74 H27         -6.6710     9.8040    17.5760 ho         1 I2K       0.467000
     75 H29         -2.1250     6.6040    13.8120 ho         1 I2K       0.510000
     76 H30         -3.9300     5.0900    14.9190 h1         1 I2K       0.063700
     77 H31         -2.1690     3.7660    14.1320 ho         1 I2K       0.446000
     78 H32         -2.1260     4.5630    17.3790 h4         1 I2K       0.007200
     79 H34         -4.5110     6.1810    21.5910 ho         1 I2K       0.521000
     80 H37         -5.7860     9.4400    25.9210 h1         1 I2K       0.070700
     81 H38         -7.2670     7.4830    26.7660 ho         1 I2K       0.447000
@<TRIPOS>BOND
     1     1    15 1   
     2     1    17 1   
     3     1    44 1   
     4     2     3 1   
     5     2    17 1   
     6     2    21 1   
     7     2    45 1   
     8     3     4 1   
     9     3    18 1   
    10     3    46 1   
    11     4     5 1   
    12     4    19 1   
    13     4    47 1   
    14     5    20 1   
    15     5    48 1   
    16     5    49 1   
    17     6    12 1   
    18     6    13 1   
    19     6    21 1   
    20     6    22 1   
    21     7    23 1   
    22     7    24 1   
    23     7    25 1   
    24     7    50 1   
    25     8    11 1   
    26     8    28 1   
    27     8    29 1   
    28     8    51 1   
    29     9    30 1   
    30     9    31 1   
    31     9    32 1   
    32     9    52 1   
    33    10    30 1   
    34    10    34 1   
    35    10    35 1   
    36    10    53 1   
    37    11    23 1   
    38    11    39 1   
    39    11    54 1   
    40    12    40 1   
    41    12    41 1   
    42    13    42 1   
    43    13    55 1   
    44    13    56 1   
    45    14    15 1   
    46    14    57 1   
    47    14    58 1   
    48    14    59 1   
    49    15    16 2   
    50    17    42 1   
    51    17    60 1   
    52    18    61 1   
    53    19    62 1   
    54    20    63 1   
    55    22    23 1   
    56    23    64 1   
    57    24    65 1   
    58    25    26 1   
    59    25    28 1   
    60    25    66 1   
    61    26    27 1   
    62    26    67 1   
    63    26    68 1   
    64    27    69 1   
    65    29    30 1   
    66    30    70 1   
    67    31    71 1   
    68    32    33 1   
    69    32    72 1   
    70    32    73 1   
    71    33    74 1   
    72    34    75 1   
    73    35    36 1   
    74    35    37 1   
    75    35    76 1   
    76    36    77 1   
    77    37    38 2   
    78    37    78 1   
    79    39    79 1   
    80    42    43 1   
    81    42    80 1   
    82    43    81 1   
@<TRIPOS>SUBSTRUCTURE
     1 I2K         1 TEMP              0 ****  ****    0 ROOT
