@<TRIPOS>MOLECULE
I2L
   45    47     1     0     0
SMALL
No Charge or Current Charge


@<TRIPOS>ATOM
      1 C10        134.7480    99.3420   111.8830 ca         1 I2L       0.161100
      2 C13        136.7690    98.2110   113.5360 cc         1 I2L      -0.082400
      3 C15        133.0220    98.6620   113.4400 ca         1 I2L      -0.071000
      4 C17        137.1080    98.9060   112.2450 c          1 I2L       0.677300
      5 C21        130.0660   100.4290   110.8610 c3         1 I2L       0.206900
      6 C22        129.3360   101.1470   109.7330 ca         1 I2L      -0.091300
      7 C24        128.6880   103.2350   108.6230 ca         1 I2L      -0.203300
      8 C26        138.3620    96.2490   113.8820 c          1 I2L       0.733000
      9 C28        127.9640   101.0820   107.7220 ca         1 I2L      -0.123000
     10 C9         134.3880    98.6970   113.0810 ca         1 I2L      -0.093800
     11 C11        135.4360    98.0880   113.9290 cd         1 I2L      -0.057400
     12 C12        133.7770    99.9360   111.0440 ca         1 I2L      -0.101300
     13 C14        132.4150    99.8720   111.4090 ca         1 I2L       0.097100
     14 C16        132.0470    99.2380   112.6120 ca         1 I2L      -0.162000
     15 C18        137.9770    97.6740   114.3160 c3         1 I2L      -0.196200
     16 C19        135.0250    97.3380   115.1890 c3         1 I2L      -0.040900
     17 C23        129.3560   102.5530   109.6640 ca         1 I2L      -0.038000
     18 C25        128.6400   100.4130   108.7550 ca         1 I2L      -0.062000
     19 C27        127.9830   102.4850   107.6560 ca         1 I2L      -0.062000
     20 C29        128.7090   104.7670   108.5650 c3         1 I2L       0.356300
     21 F1         128.5310   105.2410   107.3110 f          1 I2L      -0.116000
     22 F2         127.7320   105.3010   109.3320 f          1 I2L      -0.116000
     23 F3         129.8820   105.2780   109.0060 f          1 I2L      -0.116000
     24 O4         136.0640    99.4010   111.5140 os         1 I2L      -0.353200
     25 O5         131.4740   100.4390   110.5680 os         1 I2L      -0.367100
     26 O6         138.2500    99.0510   111.8270 o          1 I2L      -0.480000
     27 O7         139.0940    96.1220   112.9130 o          1 I2L      -0.718000
     28 O8         137.8100    95.3100   114.4340 o          1 I2L      -0.718000
     29 H3         132.6920    98.1920   114.3620 ha         1 I2L       0.117000
     30 H5         134.1650    99.9240   108.9010 hc         1 I2L       0.044700
     31 H6         133.5350   101.4690   109.4960 hc         1 I2L       0.044700
     32 H7         135.2090   101.0380   109.7980 hc         1 I2L       0.044700
     33 H8         129.8640   100.9460   111.8080 h1         1 I2L       0.048200
     34 H9         129.6950    99.4000   110.9460 h1         1 I2L       0.048200
     35 H10        127.4220   100.5110   106.9710 ha         1 I2L       0.117000
     36 H12        131.0090    99.1800   112.9260 ha         1 I2L       0.112000
     37 H13        138.8230    98.3430   114.1210 hc         1 I2L       0.045700
     38 H14        137.7250    97.6820   115.3800 hc         1 I2L       0.045700
     39 H15        134.1990    96.6480   114.9840 hc         1 I2L       0.041367
     40 H16        135.8170    96.7180   115.6150 hc         1 I2L       0.041367
     41 H17        134.6980    98.0360   115.9680 hc         1 I2L       0.041367
     42 H18        129.8960   103.1140   110.4250 ha         1 I2L       0.135000
     43 H19        128.6200    99.3260   108.7960 ha         1 I2L       0.120000
     44 H20        127.4470   102.9830   106.8510 ha         1 I2L       0.122000
     45 C20        134.1940   100.6280   109.7420 c3         1 I2L      -0.031800
@<TRIPOS>BOND
     1     1    10 ar  
     2     1    12 ar  
     3     1    24 1   
     4     2     4 1   
     5     2    11 2   
     6     2    15 1   
     7     3    10 ar  
     8     3    14 ar  
     9     3    29 1   
    10     4    24 1   
    11     4    26 2   
    12     5     6 1   
    13     5    25 1   
    14     5    33 1   
    15     5    34 1   
    16     6    17 ar  
    17     6    18 ar  
    18     7    17 ar  
    19     7    19 ar  
    20     7    20 1   
    21     8    15 1   
    22     8    27 1   
    23     8    28 1   
    24     9    18 ar  
    25     9    19 ar  
    26     9    35 1   
    27    10    11 1   
    28    11    16 1   
    29    12    13 ar  
    30    12    45 1   
    31    13    14 ar  
    32    13    25 1   
    33    14    36 1   
    34    15    37 1   
    35    15    38 1   
    36    16    39 1   
    37    16    40 1   
    38    16    41 1   
    39    17    42 1   
    40    18    43 1   
    41    19    44 1   
    42    20    21 1   
    43    20    22 1   
    44    20    23 1   
    45    30    45 1   
    46    31    45 1   
    47    32    45 1   
@<TRIPOS>SUBSTRUCTURE
     1 I2L         1 TEMP              0 ****  ****    0 ROOT
