@<TRIPOS>MOLECULE
I2L
   45    47     1     0     0
SMALL
abcg2


@<TRIPOS>ATOM
      1 C10        134.8660    99.1320   111.5600 ca         1 I2L       0.161100
      2 C13        136.3820    97.9800   113.6030 cc         1 I2L      -0.082400
      3 C15        133.3340   100.0720   113.1290 ca         1 I2L      -0.071000
      4 C17        136.7460    97.8130   112.2030 c          1 I2L       0.677300
      5 C21        131.2120   100.2600   109.2810 c3         1 I2L       0.206900
      6 C22        130.1140   101.2200   108.9350 ca         1 I2L      -0.091300
      7 C24        128.3300   102.6740   109.6520 ca         1 I2L      -0.203300
      8 C26        136.8360    95.7820   114.7990 c          1 I2L       0.733000
      9 C28        128.8710   102.5100   107.3200 ca         1 I2L      -0.123000
     10 C9         134.4820    99.3090   112.8860 ca         1 I2L      -0.093800
     11 C11        135.2780    98.6950   113.9320 cd         1 I2L      -0.057400
     12 C12        134.1740    99.6700   110.4730 ca         1 I2L      -0.101300
     13 C14        133.0430   100.4240   110.7670 ca         1 I2L       0.097100
     14 C16        132.6250   100.6200   112.0850 ca         1 I2L      -0.162000
     15 C18        137.2530    97.2640   114.5810 c3         1 I2L      -0.196200
     16 C19        134.8130    98.8730   115.3420 c3         1 I2L      -0.040900
     17 C23        129.3340   101.7670   109.9510 ca         1 I2L      -0.038000
     18 C25        129.8770   101.5990   107.6210 ca         1 I2L      -0.062000
     19 C27        128.0950   103.0490   108.3310 ca         1 I2L      -0.062000
     20 C29        127.4530   103.2320   110.7290 c3         1 I2L       0.356300
     21 F1         127.2990   104.5570   110.6080 f          1 I2L      -0.116000
     22 F2         126.2210   102.7020   110.6840 f          1 I2L      -0.116000
     23 F3         127.9290   103.0050   111.9570 f          1 I2L      -0.116000
     24 O4         135.9620    98.4000   111.2640 os         1 I2L      -0.353200
     25 O5         132.3300   101.0100   109.7660 os         1 I2L      -0.367100
     26 O6         137.7020    97.2000   111.7930 o          1 I2L      -0.480000
     27 O7         135.9890    95.3130   114.0190 o          1 I2L      -0.718000
     28 O8         137.4120    95.2020   115.7380 o          1 I2L      -0.718000
     29 H3         132.9950   100.2400   114.1410 ha         1 I2L       0.117000
     30 H5         134.5900    98.3800   108.8020 hc         1 I2L       0.044700
     31 H6         134.0600    99.9960   108.3520 hc         1 I2L       0.044700
     32 H7         135.6920    99.7370   108.9500 hc         1 I2L       0.044700
     33 H8         130.8700    99.5560   110.0450 h1         1 I2L       0.048200
     34 H9         131.5100    99.6800   108.4020 h1         1 I2L       0.048200
     35 H10        128.6940   102.8000   106.2930 ha         1 I2L       0.117000
     36 H12        131.7420   101.2160   112.2790 ha         1 I2L       0.112000
     37 H13        138.2880    97.2700   114.2300 hc         1 I2L       0.045700
     38 H14        137.2730    97.7790   115.5410 hc         1 I2L       0.045700
     39 H15        133.8010    98.4830   115.4630 hc         1 I2L       0.041367
     40 H16        135.4460    98.3670   116.0630 hc         1 I2L       0.041367
     41 H17        134.7790    99.9310   115.6120 hc         1 I2L       0.041367
     42 H18        129.5190   101.4650   110.9750 ha         1 I2L       0.135000
     43 H19        130.4790   101.1800   106.8250 ha         1 I2L       0.120000
     44 H20        127.3130   103.7550   108.0840 ha         1 I2L       0.122000
     45 C20        134.6520    99.4360   109.0720 c3         1 I2L      -0.031800
@<TRIPOS>BOND
     1     1    10 ar  
     2     1    12 ar  
     3     1    24 1   
     4     2     4 1   
     5     2    11 2   
     6     2    15 1   
     7     3    10 ar  
     8     3    14 ar  
     9     3    29 1   
    10     4    24 1   
    11     4    26 2   
    12     5     6 1   
    13     5    25 1   
    14     5    33 1   
    15     5    34 1   
    16     6    17 ar  
    17     6    18 ar  
    18     7    17 ar  
    19     7    19 ar  
    20     7    20 1   
    21     8    15 1   
    22     8    27 1   
    23     8    28 1   
    24     9    18 ar  
    25     9    19 ar  
    26     9    35 1   
    27    10    11 1   
    28    11    16 1   
    29    12    13 ar  
    30    12    45 1   
    31    13    14 ar  
    32    13    25 1   
    33    14    36 1   
    34    15    37 1   
    35    15    38 1   
    36    16    39 1   
    37    16    40 1   
    38    16    41 1   
    39    17    42 1   
    40    18    43 1   
    41    19    44 1   
    42    20    21 1   
    43    20    22 1   
    44    20    23 1   
    45    30    45 1   
    46    31    45 1   
    47    32    45 1   
@<TRIPOS>SUBSTRUCTURE
     1 I2L         1 TEMP              0 ****  ****    0 ROOT
