@<TRIPOS>MOLECULE
I2M
   24    23     1     0     0
SMALL
No Charge or Current Charge


@<TRIPOS>ATOM
      1 N           18.6700     4.0400     0.1480 n8         1 I2M      -0.884800
      2 CA          17.7040     4.0490    -1.0190 c3         1 I2M       0.032500
      3 CB          17.8190     5.3920    -1.8460 c3         1 I2M      -0.059000
      4 CG3         19.2280     5.5210    -2.4970 c3         1 I2M      -0.069100
      5 CG2         16.7650     5.4010    -2.9920 c3         1 I2M      -0.069100
      6 CG1         17.5970     6.6550    -0.9380 c3         1 I2M      -0.070400
      7 CD1         16.2440     6.7520    -0.1930 c3         1 I2M      -0.082100
      8 C           17.6860     2.7390    -1.9380 c          1 I2M       0.936600
      9 O           18.7520     2.2260    -2.2720 o          1 I2M      -0.839800
     10 OXT         16.6120     2.1760    -2.1350 o          1 I2M      -0.839800
     11 H           19.6190     3.9170    -0.2180 hn         1 I2M       0.323300
     12 H2          18.6760     4.9700     0.5750 hn         1 I2M       0.323300
     13 HA          16.7070     4.0590    -0.5610 h1         1 I2M       0.044700
     14 HG31        19.4310     4.6920    -3.1840 hc         1 I2M       0.025200
     15 HG32        19.3050     6.4500    -3.0760 hc         1 I2M       0.025200
     16 HG33        20.0220     5.5380    -1.7410 hc         1 I2M       0.025200
     17 HG21        15.7580     5.1940    -2.6100 hc         1 I2M       0.025200
     18 HG22        16.7420     6.3740    -3.4970 hc         1 I2M       0.025200
     19 HG23        16.9940     4.6440    -3.7520 hc         1 I2M       0.025200
     20 HG12        18.4010     6.7240    -0.1940 hc         1 I2M       0.015700
     21 HG13        17.6980     7.5560    -1.5560 hc         1 I2M       0.015700
     22 HD11        16.1150     5.9270     0.5160 hc         1 I2M       0.023367
     23 HD12        16.1990     7.6870     0.3780 hc         1 I2M       0.023367
     24 HD13        15.4000     6.7500    -0.8920 hc         1 I2M       0.023367
@<TRIPOS>BOND
     1     1     2 1   
     2     1    11 1   
     3     1    12 1   
     4     2     3 1   
     5     2     8 1   
     6     2    13 1   
     7     3     4 1   
     8     3     5 1   
     9     3     6 1   
    10     4    14 1   
    11     4    15 1   
    12     4    16 1   
    13     5    17 1   
    14     5    18 1   
    15     5    19 1   
    16     6     7 1   
    17     6    20 1   
    18     6    21 1   
    19     7    22 1   
    20     7    23 1   
    21     7    24 1   
    22     8     9 1   
    23     8    10 1   
@<TRIPOS>SUBSTRUCTURE
     1 I2M         1 TEMP              0 ****  ****    0 ROOT
