@<TRIPOS>MOLECULE
I2M
   24    23     1     0     0
SMALL
bcc


@<TRIPOS>ATOM
      1 N           18.5190     4.0140     0.1460 n8         1 I2M      -0.884800
      2 CA          17.6450     4.0910    -1.0170 c3         1 I2M       0.032500
      3 CB          17.7850     5.3880    -1.8730 c3         1 I2M      -0.059000
      4 CG3         19.1640     5.4840    -2.5320 c3         1 I2M      -0.069100
      5 CG2         16.7180     5.4140    -2.9700 c3         1 I2M      -0.069100
      6 CG1         17.6160     6.6400    -0.9860 c3         1 I2M      -0.070400
      7 CD1         16.3330     6.7350    -0.1710 c3         1 I2M      -0.082100
      8 C           17.8460     2.8090    -1.8640 c          1 I2M       0.936600
      9 O           19.0100     2.3580    -1.9280 o          1 I2M      -0.839800
     10 OXT         16.8380     2.3280    -2.4180 o          1 I2M      -0.839800
     11 H           19.4570     3.8020    -0.1680 hn         1 I2M       0.323300
     12 H2          18.5620     4.9000     0.6340 hn         1 I2M       0.323300
     13 HA          16.6100     4.0750    -0.6540 h1         1 I2M       0.044700
     14 HG31        19.3240     4.6940    -3.2650 hc         1 I2M       0.025200
     15 HG32        19.2680     6.4400    -3.0510 hc         1 I2M       0.025200
     16 HG33        19.9690     5.4260    -1.7960 hc         1 I2M       0.025200
     17 HG21        15.7130     5.2690    -2.5700 hc         1 I2M       0.025200
     18 HG22        16.7310     6.3750    -3.4920 hc         1 I2M       0.025200
     19 HG23        16.8860     4.6350    -3.7120 hc         1 I2M       0.025200
     20 HG12        18.4740     6.7300    -0.3100 hc         1 I2M       0.015700
     21 HG13        17.6810     7.5160    -1.6400 hc         1 I2M       0.015700
     22 HD11        16.2610     5.9560     0.5890 hc         1 I2M       0.023367
     23 HD12        16.2860     7.6930     0.3500 hc         1 I2M       0.023367
     24 HD13        15.4430     6.6640    -0.7970 hc         1 I2M       0.023367
@<TRIPOS>BOND
     1     1     2 1   
     2     1    11 1   
     3     1    12 1   
     4     2     3 1   
     5     2     8 1   
     6     2    13 1   
     7     3     4 1   
     8     3     5 1   
     9     3     6 1   
    10     4    14 1   
    11     4    15 1   
    12     4    16 1   
    13     5    17 1   
    14     5    18 1   
    15     5    19 1   
    16     6     7 1   
    17     6    20 1   
    18     6    21 1   
    19     7    22 1   
    20     7    23 1   
    21     7    24 1   
    22     8     9 1   
    23     8    10 1   
@<TRIPOS>SUBSTRUCTURE
     1 I2M         1 TEMP              0 ****  ****    0 ROOT
