@<TRIPOS>MOLECULE
I2N
   54    58     1     0     0
SMALL
No Charge or Current Charge


@<TRIPOS>ATOM
      1 C10          9.9170    -3.2320    24.4380 ca         1 I2N      -0.092500
      2 C11          9.6530    -4.4230    25.2620 cc         1 I2N       0.285500
      3 C12         10.2890    -5.6170    25.0550 cd         1 I2N      -0.207000
      4 C14          8.8650    -5.7110    26.7840 cd         1 I2N       0.396400
      5 C16         10.5770    -3.3250    23.1930 ca         1 I2N      -0.087000
      6 C17         10.7970    -2.1800    22.4090 ca         1 I2N      -0.123500
      7 C18         10.2430     0.2330    20.6010 c          1 I2N       0.604100
      8 C19          9.2640    -0.8050    20.0150 c3         1 I2N      -0.105100
      9 C20          8.0470    -0.1170    19.3880 ca         1 I2N      -0.101300
     10 C21          8.0200     0.0800    17.9890 ca         1 I2N       0.337900
     11 C23          5.9610     1.1290    18.0680 ca         1 I2N       0.365900
     12 C24          5.8910     0.9920    19.4670 ca         1 I2N      -0.098000
     13 C25          6.9510     0.3570    20.1510 ca         1 I2N       0.007000
     14 C26          6.8790     0.2240    21.5570 ca         1 I2N      -0.105000
     15 C27          5.7670     0.7180    22.2600 ca         1 I2N      -0.091000
     16 C28          4.7170     1.3470    21.5720 ca         1 I2N      -0.113000
     17 C29          4.7770     1.4840    20.1760 ca         1 I2N      -0.080000
     18 C31         13.2120     0.7520    23.7630 ca         1 I2N      -0.145000
     19 C32         14.6120     0.6980    23.8530 ca         1 I2N       0.177000
     20 C34         15.4110     1.3170    22.8810 ca         1 I2N      -0.145000
     21 C02         14.8030     1.9930    21.8130 ca         1 I2N       0.144000
     22 C03         13.4020     2.0500    21.7160 ca         1 I2N      -0.098000
     23 C04         12.5960     1.4300    22.6920 ca         1 I2N      -0.057300
     24 C05         11.0770     1.4790    22.5870 c3         1 I2N       0.155300
     25 C07         10.3970    -0.9070    22.8600 ca         1 I2N      -0.056000
     26 C08          9.6700    -0.8230    24.0630 ca         1 I2N      -0.123500
     27 C09          9.4460    -1.9660    24.8490 ca         1 I2N      -0.087000
     28 N06         10.4990     0.2460    21.9990 n          1 I2N      -0.251400
     29 N13          9.7720    -6.4490    26.0390 na         1 I2N      -0.297500
     30 N15          8.7900    -4.4710    26.3180 nc         1 I2N      -0.669000
     31 N22          7.0050     0.6840    17.3330 nb         1 I2N      -0.663000
     32 O30         10.7420     1.0710    19.8570 o          1 I2N      -0.569100
     33 Cl01        15.7980     2.7680    20.5880 cl         1 I2N      -0.193000
     34 H1          11.0350    -5.9260    24.3310 h4         1 I2N       0.160000
     35 H2           8.3210    -6.1320    27.6220 h5         1 I2N       0.059100
     36 H3          10.9150    -4.2860    22.8140 ha         1 I2N       0.127000
     37 H4          11.3060    -2.2860    21.4540 ha         1 I2N       0.121500
     38 H5           8.9340    -1.5290    20.7640 hc         1 I2N       0.073200
     39 H6           9.8080    -1.3670    19.2470 hc         1 I2N       0.073200
     40 H7           8.8470    -0.2620    17.3680 h4         1 I2N       0.016100
     41 H8           5.1570     1.6140    17.5140 h4         1 I2N       0.018100
     42 H9           7.6700    -0.2590    22.1190 ha         1 I2N       0.116000
     43 H10          5.7190     0.6110    23.3420 ha         1 I2N       0.113000
     44 H11          3.8580     1.7270    22.1200 ha         1 I2N       0.116000
     45 H12          3.9610     1.9730    19.6480 ha         1 I2N       0.116000
     46 H13         12.6080     0.2620    24.5230 ha         1 I2N       0.135000
     47 H14         16.4940     1.2710    22.9560 ha         1 I2N       0.146000
     48 H15         12.9450     2.5730    20.8800 ha         1 I2N       0.137000
     49 H16         10.7760     2.3520    21.9930 h1         1 I2N       0.064200
     50 H17         10.6610     1.6370    23.5890 h1         1 I2N       0.064200
     51 H18          9.2630     0.1280    24.3970 ha         1 I2N       0.121500
     52 H19          8.8950    -1.8650    25.7810 ha         1 I2N       0.127000
     53 H20         10.0050    -7.4210    26.2050 hn         1 I2N       0.356000
     54 F33         15.1930     0.0440    24.8820 f          1 I2N      -0.177000
@<TRIPOS>BOND
     1     1     2 1   
     2     1     5 ar  
     3     1    27 ar  
     4     2     3 2   
     5     2    30 1   
     6     3    29 1   
     7     3    34 1   
     8     4    29 1   
     9     4    30 2   
    10     4    35 1   
    11     5     6 ar  
    12     5    36 1   
    13     6    25 ar  
    14     6    37 1   
    15     7     8 1   
    16     7    28 1   
    17     7    32 2   
    18     8     9 1   
    19     8    38 1   
    20     8    39 1   
    21     9    10 ar  
    22     9    13 ar  
    23    10    31 ar  
    24    10    40 1   
    25    11    12 ar  
    26    11    31 ar  
    27    11    41 1   
    28    12    13 ar  
    29    12    17 ar  
    30    13    14 ar  
    31    14    15 ar  
    32    14    42 1   
    33    15    16 ar  
    34    15    43 1   
    35    16    17 ar  
    36    16    44 1   
    37    17    45 1   
    38    18    19 ar  
    39    18    23 ar  
    40    18    46 1   
    41    19    20 ar  
    42    19    54 1   
    43    20    21 ar  
    44    20    47 1   
    45    21    22 ar  
    46    21    33 1   
    47    22    23 ar  
    48    22    48 1   
    49    23    24 1   
    50    24    28 1   
    51    24    49 1   
    52    24    50 1   
    53    25    26 ar  
    54    25    28 1   
    55    26    27 ar  
    56    26    51 1   
    57    27    52 1   
    58    29    53 1   
@<TRIPOS>SUBSTRUCTURE
     1 I2N         1 TEMP              0 ****  ****    0 ROOT
