@<TRIPOS>MOLECULE
I2N
   54    58     1     0     0
SMALL
bcc


@<TRIPOS>ATOM
      1 C10          9.8530    -3.5540    24.7180 ca         1 I2N      -0.092500
      2 C11          9.6370    -4.8000    25.4490 cc         1 I2N       0.350800
      3 C12         10.1510    -6.0460    25.1840 cd         1 I2N      -0.239600
      4 C14          8.8650    -6.1060    26.9520 cd         1 I2N       0.396400
      5 C16         10.6570    -3.5120    23.5780 ca         1 I2N      -0.105000
      6 C17         10.8630    -2.3280    22.8920 ca         1 I2N      -0.141500
      7 C18          9.9930     0.2960    21.3660 c          1 I2N       0.671100
      8 C19          9.1410    -0.7890    20.7270 c3         1 I2N      -0.105100
      9 C20          8.2030    -0.2220    19.7070 ca         1 I2N      -0.166600
     10 C21          8.3730    -0.4890    18.3750 ca         1 I2N       0.403200
     11 C23          6.5650     0.7310    17.7280 ca         1 I2N       0.431200
     12 C24          6.2650     1.0870    19.0640 ca         1 I2N      -0.163300
     13 C25          7.1060     0.5960    20.0900 ca         1 I2N       0.007000
     14 C26          6.8110     0.9450    21.4270 ca         1 I2N      -0.123000
     15 C27          5.7360     1.7450    21.7120 ca         1 I2N      -0.109000
     16 C28          4.9020     2.2340    20.6860 ca         1 I2N      -0.131000
     17 C29          5.1620     1.9090    19.3830 ca         1 I2N      -0.098000
     18 C31         13.4320     0.3130    22.5110 ca         1 I2N      -0.163000
     19 C32         14.6880     0.5620    22.0010 ca         1 I2N       0.141900
     20 C34         15.1320     1.8320    21.6850 ca         1 I2N      -0.163000
     21 C02         14.2510     2.8790    21.9010 ca         1 I2N       0.052400
     22 C03         12.9750     2.6700    22.4010 ca         1 I2N      -0.116000
     23 C04         12.5620     1.3800    22.7070 ca         1 I2N      -0.057300
     24 C05         11.1880     1.1450    23.2820 c3         1 I2N       0.155300
     25 C07         10.2530    -1.1540    23.3200 ca         1 I2N       0.036600
     26 C08          9.4470    -1.1830    24.4520 ca         1 I2N      -0.141500
     27 C09          9.2550    -2.3660    25.1450 ca         1 I2N      -0.105000
     28 N06         10.4600     0.0670    22.6230 n          1 I2N      -0.411000
     29 N13          9.6470    -6.8580    26.1510 na         1 I2N      -0.297900
     30 N15          8.8360    -4.8620    26.5580 nc         1 I2N      -0.669000
     31 N22          7.5710    -0.0250    17.3910 nb         1 I2N      -0.663000
     32 O30         10.2380     1.3360    20.7820 o          1 I2N      -0.569100
     33 CL01        14.7530     4.4890    21.5130 cl         1 I2N      -0.101400
     34 H1          10.8100    -6.4130    24.4160 h4         1 I2N       0.178000
     35 H2           8.3440    -6.5170    27.8030 h5         1 I2N       0.059100
     36 H3          11.1420    -4.4100    23.2160 ha         1 I2N       0.145000
     37 H4          11.4980    -2.3180    22.0140 ha         1 I2N       0.139500
     38 H5           8.5910    -1.3560    21.4810 hc         1 I2N       0.073200
     39 H6           9.8120    -1.5070    20.2480 hc         1 I2N       0.073200
     40 H7           9.1990    -1.1140    18.0540 h4         1 I2N       0.016100
     41 H8           5.9280     1.1010    16.9300 h4         1 I2N       0.018100
     42 H9           7.4260     0.5790    22.2390 ha         1 I2N       0.134000
     43 H10          5.5220     2.0060    22.7400 ha         1 I2N       0.131000
     44 H11          4.0590     2.8650    20.9350 ha         1 I2N       0.134000
     45 H12          4.5290     2.2740    18.5830 ha         1 I2N       0.134000
     46 H13         13.1440    -0.7020    22.7530 ha         1 I2N       0.153000
     47 H14         16.1250     1.9940    21.2870 ha         1 I2N       0.164000
     48 H15         12.3010     3.5050    22.5440 ha         1 I2N       0.155000
     49 H16         10.6050     2.0660    23.2400 h1         1 I2N       0.064200
     50 H17         11.2820     0.8780    24.3350 h1         1 I2N       0.064200
     51 H18          8.9630    -0.2750    24.7910 ha         1 I2N       0.139500
     52 H19          8.6260    -2.3720    26.0240 ha         1 I2N       0.145000
     53 H20          9.8280    -7.8450    26.2490 hn         1 I2N       0.305700
     54 F33         15.5160    -0.4720    21.8020 f          1 I2N      -0.141900
@<TRIPOS>BOND
     1     1     2 1   
     2     1     5 ar  
     3     1    27 ar  
     4     2     3 2   
     5     2    30 1   
     6     3    29 1   
     7     3    34 1   
     8     4    29 1   
     9     4    30 2   
    10     4    35 1   
    11     5     6 ar  
    12     5    36 1   
    13     6    25 ar  
    14     6    37 1   
    15     7     8 1   
    16     7    28 1   
    17     7    32 2   
    18     8     9 1   
    19     8    38 1   
    20     8    39 1   
    21     9    10 ar  
    22     9    13 ar  
    23    10    31 ar  
    24    10    40 1   
    25    11    12 ar  
    26    11    31 ar  
    27    11    41 1   
    28    12    13 ar  
    29    12    17 ar  
    30    13    14 ar  
    31    14    15 ar  
    32    14    42 1   
    33    15    16 ar  
    34    15    43 1   
    35    16    17 ar  
    36    16    44 1   
    37    17    45 1   
    38    18    19 ar  
    39    18    23 ar  
    40    18    46 1   
    41    19    20 ar  
    42    19    54 1   
    43    20    21 ar  
    44    20    47 1   
    45    21    22 ar  
    46    21    33 1   
    47    22    23 ar  
    48    22    48 1   
    49    23    24 1   
    50    24    28 1   
    51    24    49 1   
    52    24    50 1   
    53    25    26 ar  
    54    25    28 1   
    55    26    27 ar  
    56    26    51 1   
    57    27    52 1   
    58    29    53 1   
@<TRIPOS>SUBSTRUCTURE
     1 I2N         1 TEMP              0 ****  ****    0 ROOT
