@<TRIPOS>MOLECULE
I2O
   51    55     1     0     0
SMALL
abcg2


@<TRIPOS>ATOM
      1 CAA          2.7450    -2.8600    -0.2800 ca         1 I2O      -0.125000
      2 CAB          1.4070    -2.4760    -0.3500 ca         1 I2O      -0.037300
      3 CAC          1.0810    -1.1470    -0.0360 cp         1 I2O      -0.050000
      4 CAD          2.0940    -0.2590     0.3150 ca         1 I2O      -0.045000
      5 CAE          3.4280    -0.6470     0.3600 ca         1 I2O      -0.154600
      6 CAF          3.7450    -1.9700     0.0690 ca         1 I2O      -0.081000
      7 CAG          0.3800    -3.4840    -0.7760 c3         1 I2O      -0.052800
      8 CAH          4.4480     0.3750     0.7480 c          1 I2O       0.614700
      9 NAI          5.7020     0.1570     0.3140 ns         1 I2O      -0.482900
     10 CAJ          6.7760     1.0390     0.6320 cx         1 I2O       0.052700
     11 CAK          7.8560     1.2140    -0.3830 cx         1 I2O      -0.137900
     12 CAL          6.9030     2.3360    -0.1050 cx         1 I2O      -0.137900
     13 OAM          4.1470     1.3550     1.4150 o          1 I2O      -0.593100
     14 CAN         -0.3120    -0.6440    -0.0860 cp         1 I2O      -0.002000
     15 CAO         -1.3210    -1.2730     0.6510 ca         1 I2O      -0.135000
     16 CAP         -2.5980    -0.7550     0.5800 ca         1 I2O      -0.030000
     17 CAQ         -2.9080     0.3660    -0.1860 ca         1 I2O      -0.130300
     18 CAR         -1.9120     0.9890    -0.9060 ca         1 I2O      -0.056000
     19 CAS         -0.6150     0.4810    -0.8520 ca         1 I2O      -0.131000
     20 NAT         -3.7510    -1.2070     1.2090 ns         1 I2O      -0.148000
     21 CAU         -4.8350    -0.4470     0.8920 c          1 I2O       0.569000
     22 CAV         -4.3700     0.6670    -0.0460 c5         1 I2O      -0.093700
     23 OAW         -5.9680    -0.6310     1.2860 o          1 I2O      -0.526000
     24 CAX         -5.1540     0.6240    -1.3870 c5         1 I2O      -0.054400
     25 CAY         -6.1740     1.7540    -1.2930 c5         1 I2O      -0.080900
     26 CAZ         -5.4040     2.8390    -0.5520 c5         1 I2O      -0.080900
     27 CBA         -4.6930     2.0660     0.5580 c5         1 I2O      -0.054400
     28 HAA          3.0110    -3.8830    -0.5170 ha         1 I2O       0.115000
     29 HAD          1.8320     0.7620     0.5660 ha         1 I2O       0.140000
     30 HAF          4.7650    -2.3320     0.1240 ha         1 I2O       0.111000
     31 HAG         -0.1250    -3.9330     0.0800 hc         1 I2O       0.047700
     32 HAGA        -0.3910    -3.0400    -1.4050 hc         1 I2O       0.047700
     33 HAGB         0.8470    -4.2950    -1.3340 hc         1 I2O       0.047700
     34 HNAI         5.8990    -0.6360    -0.2740 hn         1 I2O       0.319500
     35 HAJ          7.0740     1.0340     1.6760 h1         1 I2O       0.091700
     36 HAK          8.8730     1.2940    -0.0220 hc         1 I2O       0.077450
     37 HAKA         7.7580     0.6890    -1.3250 hc         1 I2O       0.077450
     38 HAL          6.1540     2.5550    -0.8550 hc         1 I2O       0.077450
     39 HALA         7.2590     3.1970     0.4450 hc         1 I2O       0.077450
     40 HAO         -1.1050    -2.1340     1.2710 ha         1 I2O       0.124000
     41 HAR         -2.1260     1.8600    -1.5140 ha         1 I2O       0.121000
     42 HAS          0.1670     0.9590    -1.4290 ha         1 I2O       0.121000
     43 HNAT        -3.7970    -2.0210     1.8020 hn         1 I2O       0.172000
     44 HAX         -4.4590     0.8240    -2.2060 hc         1 I2O       0.054700
     45 HAXA        -5.5970    -0.3530    -1.5840 hc         1 I2O       0.054700
     46 HAY         -6.5380     2.0680    -2.2720 hc         1 I2O       0.049200
     47 HAYA        -7.0390     1.4380    -0.7040 hc         1 I2O       0.049200
     48 HAZ         -4.6780     3.3060    -1.2240 hc         1 I2O       0.049200
     49 HAZA        -6.0390     3.6340    -0.1580 hc         1 I2O       0.049200
     50 HBA         -5.3700     1.9520     1.4070 hc         1 I2O       0.054700
     51 HBAA        -3.7950     2.5630     0.9260 hc         1 I2O       0.054700
@<TRIPOS>BOND
     1     1     2 ar  
     2     1     6 ar  
     3     1    28 1   
     4     2     3 ar  
     5     2     7 1   
     6     3     4 ar  
     7     3    14 1   
     8     4     5 ar  
     9     4    29 1   
    10     5     6 ar  
    11     5     8 1   
    12     6    30 1   
    13     7    31 1   
    14     7    32 1   
    15     7    33 1   
    16     8     9 1   
    17     8    13 2   
    18     9    10 1   
    19     9    34 1   
    20    10    11 1   
    21    10    12 1   
    22    10    35 1   
    23    11    12 1   
    24    11    36 1   
    25    11    37 1   
    26    12    38 1   
    27    12    39 1   
    28    14    15 ar  
    29    14    19 ar  
    30    15    16 ar  
    31    15    40 1   
    32    16    17 ar  
    33    16    20 1   
    34    17    18 ar  
    35    17    22 1   
    36    18    19 ar  
    37    18    41 1   
    38    19    42 1   
    39    20    21 1   
    40    20    43 1   
    41    21    22 1   
    42    21    23 2   
    43    22    24 1   
    44    22    27 1   
    45    24    25 1   
    46    24    44 1   
    47    24    45 1   
    48    25    26 1   
    49    25    46 1   
    50    25    47 1   
    51    26    27 1   
    52    26    48 1   
    53    26    49 1   
    54    27    50 1   
    55    27    51 1   
@<TRIPOS>SUBSTRUCTURE
     1 I2O         1 TEMP              0 ****  ****    0 ROOT
