@<TRIPOS>MOLECULE
I2O
   51    55     1     0     0
SMALL
No Charge or Current Charge


@<TRIPOS>ATOM
      1 CAA          2.8000    -2.5940    -0.6020 ca         1 I2O      -0.125000
      2 CAB          1.4350    -2.2550    -0.6030 ca         1 I2O      -0.037300
      3 CAC          1.0390    -0.9390    -0.2370 cp         1 I2O      -0.050000
      4 CAD          2.0430     0.0020     0.0990 ca         1 I2O      -0.045000
      5 CAE          3.4150    -0.3330     0.0980 ca         1 I2O      -0.154600
      6 CAF          3.7810    -1.6510    -0.2560 ca         1 I2O      -0.081000
      7 CAG          0.4280    -3.3190    -1.0300 c3         1 I2O      -0.052800
      8 CAH          4.4380     0.7210     0.4750 c          1 I2O       0.614700
      9 NAI          5.7610     0.3310     0.4620 ns         1 I2O      -0.482900
     10 CAJ          6.8660     1.1920     0.7840 cx         1 I2O       0.052700
     11 CAK          8.2550     0.6950     0.4640 cx         1 I2O      -0.137900
     12 CAL          7.6380     1.7970    -0.3620 cx         1 I2O      -0.137900
     13 OAM          4.1160     1.8630     0.7760 o          1 I2O      -0.593100
     14 CAN         -0.3930    -0.5130    -0.2040 cp         1 I2O      -0.002000
     15 CAO         -1.3490    -1.2130     0.5790 ca         1 I2O      -0.135000
     16 CAP         -2.6720    -0.7620     0.5790 ca         1 I2O      -0.030000
     17 CAQ         -3.0830     0.3370    -0.1440 ca         1 I2O      -0.130300
     18 CAR         -2.1640     1.0640    -0.9160 ca         1 I2O      -0.056000
     19 CAS         -0.8210     0.6320    -0.9380 ca         1 I2O      -0.131000
     20 NAT         -3.7800    -1.2630     1.2570 ns         1 I2O      -0.148000
     21 CAU         -4.9770    -0.6000     1.0750 c          1 I2O       0.569000
     22 CAV         -4.5780     0.5570     0.0850 c5         1 I2O      -0.093700
     23 OAW         -6.0570    -0.8850     1.5810 o          1 I2O      -0.526000
     24 CAX         -5.3440     0.4870    -1.2760 c5         1 I2O      -0.054400
     25 CAY         -6.4150     1.5910    -1.0910 c5         1 I2O      -0.080900
     26 CAZ         -5.5500     2.7260    -0.4840 c5         1 I2O      -0.080900
     27 CBA         -4.8350     1.9850     0.6790 c5         1 I2O      -0.054400
     28 HAA          3.1090    -3.6000    -0.8790 ha         1 I2O       0.115000
     29 HAD          1.7370     1.0090     0.3760 ha         1 I2O       0.140000
     30 HAF          4.8210    -1.9650    -0.2730 ha         1 I2O       0.111000
     31 HAG          0.0040    -3.8310    -0.1590 hc         1 I2O       0.047700
     32 HAGA        -0.3980    -2.8860    -1.6060 hc         1 I2O       0.047700
     33 HAGB         0.8940    -4.0820    -1.6650 hc         1 I2O       0.047700
     34 HNAI         5.9430    -0.6300     0.2090 hn         1 I2O       0.319500
     35 HAJ          6.7300     1.7890     1.6880 h1         1 I2O       0.091700
     36 HAK          9.0550     0.9630     1.1490 hc         1 I2O       0.077450
     37 HAKA         8.3580    -0.2850     0.0040 hc         1 I2O       0.077450
     38 HAL          7.3200     1.5580    -1.3740 hc         1 I2O       0.077450
     39 HALA         8.0220     2.8060    -0.2320 hc         1 I2O       0.077450
     40 HAO         -1.0590    -2.0740     1.1750 ha         1 I2O       0.124000
     41 HAR         -2.4770     1.9380    -1.4830 ha         1 I2O       0.121000
     42 HAS         -0.0990     1.1830    -1.5350 ha         1 I2O       0.121000
     43 HNAT        -3.7110    -2.0740     1.8580 hn         1 I2O       0.172000
     44 HAX         -4.6950     0.7190    -2.1290 hc         1 I2O       0.054700
     45 HAXA        -5.7840    -0.4980    -1.4690 hc         1 I2O       0.054700
     46 HAY         -6.8820     1.8820    -2.0390 hc         1 I2O       0.049200
     47 HAYA        -7.2160     1.2770    -0.4100 hc         1 I2O       0.049200
     48 HAZ         -4.8320     3.1210    -1.2140 hc         1 I2O       0.049200
     49 HAZA        -6.1530     3.5700    -0.1310 hc         1 I2O       0.049200
     50 HBA         -5.4880     1.9360     1.5590 hc         1 I2O       0.054700
     51 HBAA        -3.9180     2.4950     0.9970 hc         1 I2O       0.054700
@<TRIPOS>BOND
     1     1     2 ar  
     2     1     6 ar  
     3     1    28 1   
     4     2     3 ar  
     5     2     7 1   
     6     3     4 ar  
     7     3    14 1   
     8     4     5 ar  
     9     4    29 1   
    10     5     6 ar  
    11     5     8 1   
    12     6    30 1   
    13     7    31 1   
    14     7    32 1   
    15     7    33 1   
    16     8     9 1   
    17     8    13 2   
    18     9    10 1   
    19     9    34 1   
    20    10    11 1   
    21    10    12 1   
    22    10    35 1   
    23    11    12 1   
    24    11    36 1   
    25    11    37 1   
    26    12    38 1   
    27    12    39 1   
    28    14    15 ar  
    29    14    19 ar  
    30    15    16 ar  
    31    15    40 1   
    32    16    17 ar  
    33    16    20 1   
    34    17    18 ar  
    35    17    22 1   
    36    18    19 ar  
    37    18    41 1   
    38    19    42 1   
    39    20    21 1   
    40    20    43 1   
    41    21    22 1   
    42    21    23 2   
    43    22    24 1   
    44    22    27 1   
    45    24    25 1   
    46    24    44 1   
    47    24    45 1   
    48    25    26 1   
    49    25    46 1   
    50    25    47 1   
    51    26    27 1   
    52    26    48 1   
    53    26    49 1   
    54    27    50 1   
    55    27    51 1   
@<TRIPOS>SUBSTRUCTURE
     1 I2O         1 TEMP              0 ****  ****    0 ROOT
