@<TRIPOS>MOLECULE
I2Q
   48    51     1     0     0
SMALL
abcg2


@<TRIPOS>ATOM
      1 O1         -66.4730   -70.9310    24.7010 os         1 I2Q      -0.401100
      2 C2         -68.4820   -64.6630    31.8670 cc         1 I2Q      -0.254400
      3 C3         -67.6350   -64.1890    30.9030 cd         1 I2Q       0.209800
      4 C4         -66.5960   -65.0020    30.2360 ca         1 I2Q      -0.082800
      5 C5         -66.5820   -65.1010    28.8450 ca         1 I2Q      -0.085000
      6 C6         -65.6380   -65.8850    28.2060 ca         1 I2Q      -0.107500
      7 C7         -64.6780   -66.5850    28.9340 ca         1 I2Q      -0.067300
      8 C8         -63.6830   -67.4720    28.2280 c3         1 I2Q       0.010200
      9 C9         -64.3710   -68.4270    27.2860 ca         1 I2Q      -0.070300
     10 C10        -64.1870   -68.3440    25.9110 ca         1 I2Q      -0.098000
     11 C11        -64.8890   -69.1710    25.0430 ca         1 I2Q      -0.097000
     12 C12        -65.7780   -70.0900    25.5670 ca         1 I2Q       0.088100
     13 C13        -67.6760   -70.5220    24.2820 c3         1 I2Q       0.513000
     14 F1         -67.6380   -69.3310    23.6800 f          1 I2Q      -0.109000
     15 F2         -68.5620   -70.4180    25.2750 f          1 I2Q      -0.109000
     16 F3         -68.1270   -71.4150    23.4140 f          1 I2Q      -0.109000
     17 C14        -65.9580   -70.2210    26.9350 ca         1 I2Q      -0.097000
     18 C15        -65.2520   -69.3850    27.7850 ca         1 I2Q      -0.098000
     19 C16        -64.6780   -66.4600    30.3190 ca         1 I2Q      -0.107500
     20 C17        -65.6240   -65.6780    30.9660 ca         1 I2Q      -0.085000
     21 N1         -67.7250   -62.9130    30.4490 na         1 I2Q      -0.791000
     22 C18        -68.6510   -62.0210    30.9050 ca         1 I2Q       0.324000
     23 C19        -68.7050   -60.7210    30.3800 ca         1 I2Q      -0.183000
     24 C20        -69.6500   -59.8410    30.8510 ca         1 I2Q      -0.048000
     25 C21        -70.5550   -60.2310    31.8480 ca         1 I2Q      -0.162000
     26 C22        -70.4970   -61.5040    32.3640 ca         1 I2Q      -0.018000
     27 C23        -69.5440   -62.4250    31.9030 ca         1 I2Q      -0.211600
     28 C24        -69.4820   -63.7850    32.4430 c          1 I2Q       0.589900
     29 O2         -70.2570   -64.1620    33.3250 o          1 I2Q      -0.570100
     30 H1         -69.4850   -66.4700    32.4150 hc         1 I2Q       0.044033
     31 H2         -67.9020   -66.7390    31.6960 hc         1 I2Q       0.044033
     32 H3         -68.0370   -66.1640    33.3520 hc         1 I2Q       0.044033
     33 H5         -67.3320   -64.5870    28.2550 ha         1 I2Q       0.124000
     34 H6         -65.6630   -65.9660    27.1260 ha         1 I2Q       0.119500
     35 H7         -63.1020   -68.0270    28.9690 hc         1 I2Q       0.061700
     36 H8         -62.9700   -66.8580    27.6730 hc         1 I2Q       0.061700
     37 H9         -63.4990   -67.6140    25.5030 ha         1 I2Q       0.122500
     38 H10        -64.7380   -69.0970    23.9740 ha         1 I2Q       0.136000
     39 H11        -66.6350   -70.9640    27.3340 ha         1 I2Q       0.136000
     40 H12        -65.4020   -69.4740    28.8540 ha         1 I2Q       0.122500
     41 H13        -63.9340   -66.9880    30.9050 ha         1 I2Q       0.119500
     42 H14        -65.6050   -65.5970    32.0460 ha         1 I2Q       0.124000
     43 H15        -68.0060   -60.4230    29.6080 ha         1 I2Q       0.114000
     44 H16        -69.6940   -58.8400    30.4440 ha         1 I2Q       0.114000
     45 H17        -71.2950   -59.5290    32.2090 ha         1 I2Q       0.120000
     46 H18        -71.1900   -61.8140    33.1340 ha         1 I2Q       0.138000
     47 H4         -67.0490   -62.5950    29.7690 hn         1 I2Q       0.506000
     48 C1         -68.4680   -66.0820    32.3510 c3         1 I2Q      -0.025900
@<TRIPOS>BOND
     1     1    12 1   
     2     1    13 1   
     3     2     3 2   
     4     2    28 1   
     5     2    48 1   
     6     3     4 1   
     7     3    21 1   
     8     4     5 ar  
     9     4    20 ar  
    10     5     6 ar  
    11     5    33 1   
    12     6     7 ar  
    13     6    34 1   
    14     7     8 1   
    15     7    19 ar  
    16     8     9 1   
    17     8    35 1   
    18     8    36 1   
    19     9    10 ar  
    20     9    18 ar  
    21    10    11 ar  
    22    10    37 1   
    23    11    12 ar  
    24    11    38 1   
    25    12    17 ar  
    26    13    14 1   
    27    13    15 1   
    28    13    16 1   
    29    17    18 ar  
    30    17    39 1   
    31    18    40 1   
    32    19    20 ar  
    33    19    41 1   
    34    20    42 1   
    35    21    22 1   
    36    21    47 1   
    37    22    23 ar  
    38    22    27 ar  
    39    23    24 ar  
    40    23    43 1   
    41    24    25 ar  
    42    24    44 1   
    43    25    26 ar  
    44    25    45 1   
    45    26    27 ar  
    46    26    46 1   
    47    27    28 1   
    48    28    29 2   
    49    30    48 1   
    50    31    48 1   
    51    32    48 1   
@<TRIPOS>SUBSTRUCTURE
     1 I2Q         1 TEMP              0 ****  ****    0 ROOT
