@<TRIPOS>MOLECULE
I2Q
   48    51     1     0     0
SMALL
No Charge or Current Charge


@<TRIPOS>ATOM
      1 O1         -66.4710   -70.8670    24.3110 os         1 I2Q      -0.401100
      2 C2         -68.7670   -64.4510    31.7200 cc         1 I2Q      -0.254400
      3 C3         -67.7660   -64.0180    30.8450 cd         1 I2Q       0.209800
      4 C4         -66.7870   -64.8940    30.1430 ca         1 I2Q      -0.082800
      5 C5         -66.2190   -64.4590    28.9220 ca         1 I2Q      -0.085000
      6 C6         -65.2820   -65.2490    28.2340 ca         1 I2Q      -0.107500
      7 C7         -64.8720   -66.4860    28.7580 ca         1 I2Q      -0.067300
      8 C8         -63.8600   -67.3450    28.0100 c3         1 I2Q       0.010200
      9 C9         -64.5490   -68.2970    27.0410 ca         1 I2Q      -0.070300
     10 C10        -64.7920   -67.9060    25.7120 ca         1 I2Q      -0.098000
     11 C11        -65.4350   -68.7840    24.8220 ca         1 I2Q      -0.097000
     12 C12        -65.8440   -70.0600    25.2450 ca         1 I2Q       0.088100
     13 C13        -66.9520   -72.1990    24.5860 c3         1 I2Q       0.513000
     14 F1         -67.8950   -72.2090    25.5560 f          1 I2Q      -0.109000
     15 F2         -65.9550   -73.0320    24.9640 f          1 I2Q      -0.109000
     16 F3         -67.5170   -72.7380    23.4840 f          1 I2Q      -0.109000
     17 C14        -65.6030   -70.4530    26.5810 ca         1 I2Q      -0.097000
     18 C15        -64.9590   -69.5730    27.4700 ca         1 I2Q      -0.098000
     19 C16        -65.4070   -66.9190    29.9830 ca         1 I2Q      -0.107500
     20 C17        -66.3470   -66.1310    30.6700 ca         1 I2Q      -0.085000
     21 N1         -67.5230   -62.6340    30.7680 na         1 I2Q      -0.791000
     22 C18        -68.4650   -61.7430    31.2640 ca         1 I2Q       0.324000
     23 C19        -68.3400   -60.3980    30.8750 ca         1 I2Q      -0.183000
     24 C20        -69.2070   -59.4180    31.3850 ca         1 I2Q      -0.048000
     25 C21        -70.2040   -59.7830    32.3010 ca         1 I2Q      -0.162000
     26 C22        -70.3310   -61.1240    32.6960 ca         1 I2Q      -0.018000
     27 C23        -69.4570   -62.1000    32.1680 ca         1 I2Q      -0.211600
     28 C24        -69.5840   -63.5190    32.5260 c          1 I2Q       0.589900
     29 O2         -70.3640   -63.8790    33.4040 o          1 I2Q      -0.570100
     30 H1         -70.2710   -66.0030    32.0350 hc         1 I2Q       0.044033
     31 H2         -68.9420   -66.5140    31.0310 hc         1 I2Q       0.044033
     32 H3         -68.7070   -66.3450    32.7890 hc         1 I2Q       0.044033
     33 H5         -66.5280   -63.5170    28.4760 ha         1 I2Q       0.124000
     34 H6         -64.8780   -64.8970    27.2870 ha         1 I2Q       0.119500
     35 H7         -63.2490   -67.9120    28.7230 hc         1 I2Q       0.061700
     36 H8         -63.1520   -66.7050    27.4690 hc         1 I2Q       0.061700
     37 H9         -64.4850   -66.9210    25.3670 ha         1 I2Q       0.122500
     38 H10        -65.6180   -68.4740    23.7960 ha         1 I2Q       0.136000
     39 H11        -65.9030   -71.4280    26.9520 ha         1 I2Q       0.136000
     40 H12        -64.7820   -69.8850    28.4970 ha         1 I2Q       0.122500
     41 H13        -65.0870   -67.8660    30.4120 ha         1 I2Q       0.119500
     42 H14        -66.6870   -66.4780    31.6390 ha         1 I2Q       0.124000
     43 H15        -67.5610   -60.1050    30.1770 ha         1 I2Q       0.114000
     44 H16        -69.1020   -58.3790    31.0760 ha         1 I2Q       0.114000
     45 H17        -70.8780   -59.0300    32.7030 ha         1 I2Q       0.120000
     46 H18        -71.1120   -61.4020    33.4020 ha         1 I2Q       0.138000
     47 H4         -66.6990   -62.2860    30.2870 hn         1 I2Q       0.506000
     48 C1         -69.1860   -65.9030    31.9080 c3         1 I2Q      -0.025900
@<TRIPOS>BOND
     1     1    12 1   
     2     1    13 1   
     3     2     3 2   
     4     2    28 1   
     5     2    48 1   
     6     3     4 1   
     7     3    21 1   
     8     4     5 ar  
     9     4    20 ar  
    10     5     6 ar  
    11     5    33 1   
    12     6     7 ar  
    13     6    34 1   
    14     7     8 1   
    15     7    19 ar  
    16     8     9 1   
    17     8    35 1   
    18     8    36 1   
    19     9    10 ar  
    20     9    18 ar  
    21    10    11 ar  
    22    10    37 1   
    23    11    12 ar  
    24    11    38 1   
    25    12    17 ar  
    26    13    14 1   
    27    13    15 1   
    28    13    16 1   
    29    17    18 ar  
    30    17    39 1   
    31    18    40 1   
    32    19    20 ar  
    33    19    41 1   
    34    20    42 1   
    35    21    22 1   
    36    21    47 1   
    37    22    23 ar  
    38    22    27 ar  
    39    23    24 ar  
    40    23    43 1   
    41    24    25 ar  
    42    24    44 1   
    43    25    26 ar  
    44    25    45 1   
    45    26    27 ar  
    46    26    46 1   
    47    27    28 1   
    48    28    29 2   
    49    30    48 1   
    50    31    48 1   
    51    32    48 1   
@<TRIPOS>SUBSTRUCTURE
     1 I2Q         1 TEMP              0 ****  ****    0 ROOT
