@<TRIPOS>MOLECULE
I2R
   33    35     1     0     0
SMALL
bcc


@<TRIPOS>ATOM
      1 C10         92.5260   139.2700   119.1760 ca         1 I2R      -0.148000
      2 C13         92.0910   140.0330   120.2430 ca         1 I2R      -0.127000
      3 C15         92.8420   136.8250   117.0060 ca         1 I2R      -0.134000
      4 C17         93.5430   135.6550   116.7550 ca         1 I2R      -0.120500
      5 C20         94.6410   135.6620   115.9060 ca         1 I2R      -0.142000
      6 C21         90.0160   143.8820   113.8710 c          1 I2R       0.935800
      7 C22         91.4350   141.9070   113.3020 cg         1 I2R       0.259500
      8 C5          92.2330   139.7370   117.8970 ca         1 I2R      -0.048200
      9 C6          91.5460   140.9420   117.6760 ca         1 I2R      -0.078800
     10 C7          91.4700   141.1370   116.2490 cc         1 I2R      -0.076200
     11 C8          92.1060   140.0510   115.6880 cd         1 I2R      -0.099100
     12 C9          93.2600   138.0130   116.4160 ca         1 I2R       0.022800
     13 C11         91.1150   141.6930   118.7720 ca         1 I2R      -0.069000
     14 C12         90.8270   142.2550   115.6200 cf         1 I2R      -0.091000
     15 C14         91.3870   141.2300   120.0440 ca         1 I2R      -0.170000
     16 C16         94.3630   138.0290   115.5710 ca         1 I2R      -0.134000
     17 C18         95.0450   136.8500   115.3120 ca         1 I2R      -0.120500
     18 C19         90.7740   142.6330   114.3260 ce         1 I2R      -0.083900
     19 N3          92.5530   139.2120   116.6590 na         1 I2R      -0.004500
     20 N4          91.9780   141.3110   112.4730 n1         1 I2R      -0.476800
     21 O1          90.0800   144.1160   112.6510 o          1 I2R      -0.809300
     22 O2          89.4250   144.5230   114.7530 o          1 I2R      -0.809300
     23 H1          93.0760   138.3520   119.3370 ha         1 I2R       0.127000
     24 H2          92.3000   139.7000   121.2510 ha         1 I2R       0.115000
     25 H3          91.9680   136.8110   117.6440 ha         1 I2R       0.149500
     26 H4          93.2170   134.7310   117.2160 ha         1 I2R       0.129000
     27 H5          95.1800   134.7450   115.7090 ha         1 I2R       0.125000
     28 H6          92.2490   139.7900   114.6520 h4         1 I2R       0.182000
     29 H7          90.5830   142.6260   118.6320 ha         1 I2R       0.146000
     30 H8          90.2940   142.9190   116.2930 ha         1 I2R       0.154000
     31 H9          91.0600   141.8000   120.9030 ha         1 I2R       0.120000
     32 H10         94.6920   138.9600   115.1260 ha         1 I2R       0.149500
     33 H11         95.9020   136.8630   114.6510 ha         1 I2R       0.129000
@<TRIPOS>BOND
     1     1     2 ar  
     2     1     8 ar  
     3     1    23 1   
     4     2    15 ar  
     5     2    24 1   
     6     3     4 ar  
     7     3    12 ar  
     8     3    25 1   
     9     4     5 ar  
    10     4    26 1   
    11     5    17 ar  
    12     5    27 1   
    13     6    18 1   
    14     6    21 1   
    15     6    22 1   
    16     7    18 1   
    17     7    20 3   
    18     8     9 ar  
    19     8    19 1   
    20     9    10 1   
    21     9    13 ar  
    22    10    11 2   
    23    10    14 1   
    24    11    19 1   
    25    11    28 1   
    26    12    16 ar  
    27    12    19 1   
    28    13    15 ar  
    29    13    29 1   
    30    14    18 2   
    31    14    30 1   
    32    15    31 1   
    33    16    17 ar  
    34    16    32 1   
    35    17    33 1   
@<TRIPOS>SUBSTRUCTURE
     1 I2R         1 TEMP              0 ****  ****    0 ROOT
