@<TRIPOS>MOLECULE
I2R
   33    35     1     0     0
SMALL
No Charge or Current Charge


@<TRIPOS>ATOM
      1 C10         92.9230   139.5200   119.2710 ca         1 I2R      -0.130000
      2 C13         92.2290   140.1000   120.3530 ca         1 I2R      -0.109000
      3 C15         92.6140   137.2330   116.6670 ca         1 I2R      -0.116000
      4 C17         92.9440   135.9130   116.3130 ca         1 I2R      -0.102500
      5 C20         94.1890   135.6340   115.7250 ca         1 I2R      -0.124000
      6 C21         89.6810   143.4110   113.8550 c          1 I2R       0.725200
      7 C22         91.4890   141.8130   113.2790 cg         1 I2R       0.348700
      8 C5          92.6440   139.9900   117.9790 ca         1 I2R      -0.048200
      9 C6          91.7310   140.9850   117.7560 ca         1 I2R      -0.078800
     10 C7          91.6710   141.2080   116.3300 cc         1 I2R      -0.076200
     11 C8          92.5480   140.2890   115.7490 cd         1 I2R      -0.149100
     12 C9          93.5290   138.2790   116.4360 ca         1 I2R       0.022800
     13 C11         91.0230   141.5810   118.8130 ca         1 I2R      -0.051000
     14 C12         90.8380   142.0740   115.6600 cf         1 I2R      -0.141000
     15 C14         91.2830   141.1270   120.1240 ca         1 I2R      -0.152000
     16 C16         94.7750   137.9940   115.8460 ca         1 I2R      -0.116000
     17 C18         95.1050   136.6740   115.4910 ca         1 I2R      -0.102500
     18 C19         90.6980   142.3920   114.3230 ce         1 I2R      -0.083900
     19 N3          93.2100   139.5910   116.7820 na         1 I2R      -0.004500
     20 N4          92.1630   141.3220   112.4580 n1         1 I2R      -0.566000
     21 O1          89.5870   143.6720   112.6620 o          1 I2R      -0.704000
     22 O2          88.9690   143.9530   114.6910 o          1 I2R      -0.704000
     23 H1          93.6560   138.7340   119.4340 ha         1 I2R       0.109000
     24 H2          92.4230   139.7570   121.3660 ha         1 I2R       0.097000
     25 H3          91.6470   137.4440   117.1200 ha         1 I2R       0.131500
     26 H4          92.2350   135.1080   116.4930 ha         1 I2R       0.111000
     27 H5          94.4450   134.6130   115.4510 ha         1 I2R       0.107000
     28 H6          92.7440   140.0470   114.7120 h4         1 I2R       0.232000
     29 H7          90.2930   142.3670   118.6360 ha         1 I2R       0.128000
     30 H8          90.1860   142.6140   116.3470 ha         1 I2R       0.204000
     31 H9          90.7510   141.5690   120.9630 ha         1 I2R       0.102000
     32 H10         95.4870   138.7970   115.6630 ha         1 I2R       0.131500
     33 H11         96.0690   136.4580   115.0360 ha         1 I2R       0.111000
@<TRIPOS>BOND
     1     1     2 ar  
     2     1     8 ar  
     3     1    23 1   
     4     2    15 ar  
     5     2    24 1   
     6     3     4 ar  
     7     3    12 ar  
     8     3    25 1   
     9     4     5 ar  
    10     4    26 1   
    11     5    17 ar  
    12     5    27 1   
    13     6    18 1   
    14     6    21 1   
    15     6    22 1   
    16     7    18 1   
    17     7    20 3   
    18     8     9 ar  
    19     8    19 1   
    20     9    10 1   
    21     9    13 ar  
    22    10    11 2   
    23    10    14 1   
    24    11    19 1   
    25    11    28 1   
    26    12    16 ar  
    27    12    19 1   
    28    13    15 ar  
    29    13    29 1   
    30    14    18 2   
    31    14    30 1   
    32    15    31 1   
    33    16    17 ar  
    34    16    32 1   
    35    17    33 1   
@<TRIPOS>SUBSTRUCTURE
     1 I2R         1 TEMP              0 ****  ****    0 ROOT
