@<TRIPOS>MOLECULE
I2S
   52    56     1     0     0
SMALL
No Charge or Current Charge


@<TRIPOS>ATOM
      1 C4         -14.6110   -14.4700    -9.9610 ca         1 I2S      -0.003500
      2 C2         -15.9470   -15.1930    -8.0490 ca         1 I2S      -0.006300
      3 C3         -15.8530   -14.8140    -9.4010 ca         1 I2S      -0.135000
      4 C1         -17.2930   -15.5670    -7.4490 c3         1 I2S      -0.061800
      5 N3          -8.9400   -19.0680   -12.4460 nu         1 I2S      -0.808200
      6 C8          -9.8850   -17.0970   -11.5020 cc         1 I2S      -0.081800
      7 C9          -9.9540   -15.7780   -11.2000 cd         1 I2S      -0.198600
      8 C10         -8.8590   -14.8500   -11.5740 c          1 I2S       0.474400
      9 C11         -7.7060   -15.5480   -12.3040 cd         1 I2S       0.471600
     10 C16         -2.4850   -12.5570   -14.3410 ca         1 I2S       0.117000
     11 C17         -2.5640   -12.9370   -12.9910 ca         1 I2S      -0.106000
     12 C18         -3.8110   -13.2550   -12.4230 ca         1 I2S      -0.093000
     13 C19         -7.7250   -16.9670   -12.5910 cd         1 I2S      -0.387600
     14 C20         -8.8050   -17.7200   -12.1990 cc         1 I2S       0.226800
     15 C21        -10.2670   -19.7430   -12.3990 c6         1 I2S       0.219800
     16 C5         -13.4470   -14.5050    -9.1650 ca         1 I2S      -0.323500
     17 Cl1         -0.9250   -12.1610   -15.0510 cl         1 I2S      -0.214000
     18 C15         -3.6480   -12.4950   -15.1250 ca         1 I2S      -0.106000
     19 C14         -4.8960   -12.8130   -14.5570 ca         1 I2S      -0.093000
     20 C13         -4.9830   -13.1930   -13.2020 ca         1 I2S      -0.072300
     21 C12         -6.3340   -13.5350   -12.5870 c3         1 I2S       0.168100
     22 C22        -11.1360   -19.2570   -11.1960 c6         1 I2S      -0.008100
     23 C7         -11.0120   -17.7630   -11.0300 cc         1 I2S      -0.133300
     24 O3          -8.9120   -13.6520   -11.3010 o          1 I2S      -0.510100
     25 N1         -11.1890   -15.6000   -10.5240 na         1 I2S      -0.051200
     26 C6         -11.8370   -16.8560   -10.4220 cd         1 I2S      -0.127000
     27 S1         -11.8410   -14.0850    -9.8870 sy         1 I2S       1.174700
     28 O1         -12.0380   -13.2220   -11.0630 o          1 I2S      -0.494500
     29 O2         -10.9120   -13.6820    -8.8190 o          1 I2S      -0.494500
     30 C23        -13.5360   -14.8900    -7.8110 ca         1 I2S      -0.003500
     31 C24        -14.7830   -15.2310    -7.2600 ca         1 I2S      -0.135000
     32 H1         -14.5610   -14.1830   -11.0110 ha         1 I2S       0.142500
     33 H2         -16.7460   -14.7860   -10.0210 ha         1 I2S       0.123000
     34 H3         -17.4850   -16.6410    -7.5620 hc         1 I2S       0.053367
     35 H4         -17.3340   -15.3300    -6.3790 hc         1 I2S       0.053367
     36 H5         -18.1130   -15.0270    -7.9370 hc         1 I2S       0.053367
     37 H6          -8.1950   -19.4940   -13.0010 hn         1 I2S       0.476000
     38 H7          -1.6610   -12.9860   -12.3880 ha         1 I2S       0.126000
     39 H8          -3.8650   -13.5510   -11.3770 ha         1 I2S       0.125000
     40 H9          -6.8970   -17.4240   -13.1160 ha         1 I2S       0.202000
     41 H10        -10.8120   -19.5280   -13.3300 h1         1 I2S       0.041700
     42 H11        -10.1460   -20.8350   -12.3440 h1         1 I2S       0.041700
     43 H12         -3.5840   -12.2020   -16.1690 ha         1 I2S       0.126000
     44 H13         -5.7930   -12.7650   -15.1700 ha         1 I2S       0.125000
     45 H14         -6.3190   -13.2490   -11.5260 h1         1 I2S       0.073200
     46 H15         -7.1070   -12.9280   -13.0770 h1         1 I2S       0.073200
     47 H16        -12.1810   -19.5600   -11.3460 hc         1 I2S       0.058700
     48 H17        -10.7940   -19.7600   -10.2820 hc         1 I2S       0.058700
     49 H18        -12.7930   -16.9980    -9.9300 h4         1 I2S       0.161000
     50 H19        -12.6470   -14.9290    -7.1820 ha         1 I2S       0.142500
     51 H20        -14.8430   -15.5280    -6.2150 ha         1 I2S       0.123000
     52 N2          -6.6170   -14.9720   -12.7410 n2         1 I2S      -0.585900
@<TRIPOS>BOND
     1     1     3 ar  
     2     1    16 ar  
     3     1    32 1   
     4     2     3 ar  
     5     2     4 1   
     6     2    31 ar  
     7     3    33 1   
     8     4    34 1   
     9     4    35 1   
    10     4    36 1   
    11     5    14 1   
    12     5    15 1   
    13     5    37 1   
    14     6     7 2   
    15     6    14 1   
    16     6    23 1   
    17     7     8 1   
    18     7    25 1   
    19     8     9 1   
    20     8    24 2   
    21     9    13 1   
    22     9    52 2   
    23    10    11 ar  
    24    10    17 1   
    25    10    18 ar  
    26    11    12 ar  
    27    11    38 1   
    28    12    20 ar  
    29    12    39 1   
    30    13    14 2   
    31    13    40 1   
    32    15    22 1   
    33    15    41 1   
    34    15    42 1   
    35    16    27 1   
    36    16    30 ar  
    37    18    19 ar  
    38    18    43 1   
    39    19    20 ar  
    40    19    44 1   
    41    20    21 1   
    42    21    45 1   
    43    21    46 1   
    44    21    52 1   
    45    22    23 1   
    46    22    47 1   
    47    22    48 1   
    48    23    26 2   
    49    25    26 1   
    50    25    27 1   
    51    26    49 1   
    52    27    28 2   
    53    27    29 2   
    54    30    31 ar  
    55    30    50 1   
    56    31    51 1   
@<TRIPOS>SUBSTRUCTURE
     1 I2S         1 TEMP              0 ****  ****    0 ROOT
