@<TRIPOS>MOLECULE
I2S
   52    56     1     0     0
SMALL
abcg2


@<TRIPOS>ATOM
      1 C4         -13.9790   -14.2690    -9.8810 ca         1 I2S      -0.003500
      2 C2         -15.7190   -15.0470    -8.3890 ca         1 I2S      -0.006300
      3 C3         -15.3150   -14.5000    -9.6080 ca         1 I2S      -0.135000
      4 C1         -17.1640   -15.3290    -8.1220 c3         1 I2S      -0.061800
      5 N3          -9.2360   -19.0800   -12.6840 nu         1 I2S      -0.808200
      6 C8          -9.9180   -17.2040   -11.4510 cc         1 I2S      -0.081800
      7 C9          -9.8140   -15.9530   -10.9070 cd         1 I2S      -0.198600
      8 C10         -8.6010   -15.1810   -11.0210 c          1 I2S       0.474400
      9 C11         -7.5770   -15.7830   -11.9930 cd         1 I2S       0.471600
     10 C16         -3.1220   -12.2730   -14.6560 ca         1 I2S       0.117000
     11 C17         -3.4440   -11.5970   -13.4890 ca         1 I2S      -0.106000
     12 C18         -4.4200   -12.1200   -12.6560 ca         1 I2S      -0.093000
     13 C19         -7.7760   -17.1240   -12.5200 cd         1 I2S      -0.387600
     14 C20         -8.9110   -17.8260   -12.2730 cc         1 I2S       0.226800
     15 C21        -10.6380   -19.4820   -12.7740 c6         1 I2S       0.219800
     16 C5         -13.0340   -14.5970    -8.9160 ca         1 I2S      -0.323500
     17 CL1         -1.8990   -11.6330   -15.7080 cl         1 I2S      -0.214000
     18 C15         -3.7620   -13.4540   -14.9930 ca         1 I2S      -0.106000
     19 C14         -4.7390   -13.9620   -14.1460 ca         1 I2S      -0.093000
     20 C13         -5.0820   -13.3060   -12.9700 ca         1 I2S      -0.072300
     21 C12         -6.1660   -13.8140   -12.0460 c3         1 I2S       0.168100
     22 C22        -11.4100   -19.2020   -11.4820 c6         1 I2S      -0.008100
     23 C7         -11.1150   -17.8050   -11.0450 cc         1 I2S      -0.133300
     24 O3          -8.3680   -14.1700   -10.3880 o          1 I2S      -0.510100
     25 N1         -10.9630   -15.7580   -10.1620 na         1 I2S      -0.051200
     26 C6         -11.7490   -16.8860   -10.2500 cd         1 I2S      -0.127000
     27 S1         -11.3380   -14.3300    -9.2680 sy         1 I2S       1.174700
     28 O1         -11.1950   -13.2270   -10.1900 o          1 I2S      -0.494500
     29 O2         -10.5620   -14.3790    -8.0490 o          1 I2S      -0.494500
     30 C23        -13.4040   -15.1310    -7.6880 ca         1 I2S      -0.003500
     31 C24        -14.7470   -15.3500    -7.4360 ca         1 I2S      -0.135000
     32 H1         -13.6860   -13.8470   -10.8320 ha         1 I2S       0.142500
     33 H2         -16.0570   -14.2480   -10.3550 ha         1 I2S       0.123000
     34 H3         -17.4130   -16.3450    -8.4380 hc         1 I2S       0.053367
     35 H4         -17.3980   -15.2520    -7.0610 hc         1 I2S       0.053367
     36 H5         -17.8140   -14.6500    -8.6710 hc         1 I2S       0.053367
     37 H6          -8.6220   -19.5060   -13.3610 hn         1 I2S       0.476000
     38 H7          -2.9390   -10.6770   -13.2280 ha         1 I2S       0.126000
     39 H8          -4.6690   -11.5910   -11.7440 ha         1 I2S       0.125000
     40 H9          -6.9950   -17.5170   -13.1590 ha         1 I2S       0.202000
     41 H10        -11.1340   -18.9700   -13.6060 h1         1 I2S       0.041700
     42 H11        -10.6590   -20.5480   -12.9910 h1         1 I2S       0.041700
     43 H12         -3.5060   -13.9770   -15.9050 ha         1 I2S       0.126000
     44 H13         -5.2340   -14.8870   -14.4060 ha         1 I2S       0.125000
     45 H14         -5.8030   -13.7620   -11.0140 h1         1 I2S       0.073200
     46 H15         -7.0090   -13.1150   -12.0860 h1         1 I2S       0.073200
     47 H16        -12.4730   -19.3650   -11.6580 hc         1 I2S       0.058700
     48 H17        -11.1010   -19.9070   -10.7050 hc         1 I2S       0.058700
     49 H18        -12.7030   -16.9460    -9.7520 h4         1 I2S       0.161000
     50 H19        -12.6640   -15.3790    -6.9390 ha         1 I2S       0.142500
     51 H20        -15.0440   -15.7640    -6.4810 ha         1 I2S       0.123000
     52 N2          -6.5350   -15.1550   -12.3840 n2         1 I2S      -0.585900
@<TRIPOS>BOND
     1     1     3 ar  
     2     1    16 ar  
     3     1    32 1   
     4     2     3 ar  
     5     2     4 1   
     6     2    31 ar  
     7     3    33 1   
     8     4    34 1   
     9     4    35 1   
    10     4    36 1   
    11     5    14 1   
    12     5    15 1   
    13     5    37 1   
    14     6     7 2   
    15     6    14 1   
    16     6    23 1   
    17     7     8 1   
    18     7    25 1   
    19     8     9 1   
    20     8    24 2   
    21     9    13 1   
    22     9    52 2   
    23    10    11 ar  
    24    10    17 1   
    25    10    18 ar  
    26    11    12 ar  
    27    11    38 1   
    28    12    20 ar  
    29    12    39 1   
    30    13    14 2   
    31    13    40 1   
    32    15    22 1   
    33    15    41 1   
    34    15    42 1   
    35    16    27 1   
    36    16    30 ar  
    37    18    19 ar  
    38    18    43 1   
    39    19    20 ar  
    40    19    44 1   
    41    20    21 1   
    42    21    45 1   
    43    21    46 1   
    44    21    52 1   
    45    22    23 1   
    46    22    47 1   
    47    22    48 1   
    48    23    26 2   
    49    25    26 1   
    50    25    27 1   
    51    26    49 1   
    52    27    28 2   
    53    27    29 2   
    54    30    31 ar  
    55    30    50 1   
    56    31    51 1   
@<TRIPOS>SUBSTRUCTURE
     1 I2S         1 TEMP              0 ****  ****    0 ROOT
