@<TRIPOS>MOLECULE
I2U
   30    32     1     0     0
SMALL
abcg2


@<TRIPOS>ATOM
      1 C10        192.8900   145.0490   171.3920 cc         1 I2U      -0.319400
      2 C13        193.6080   141.6390   172.3700 ca         1 I2U      -0.085000
      3 C15        193.3690   142.8590   174.4330 ca         1 I2U       0.111000
      4 C20        190.9660   149.0130   169.5150 cc         1 I2U      -0.143000
      5 C21        190.0640   148.0360   169.2060 cd         1 I2U      -0.236000
      6 C8         193.1470   144.0330   172.3810 ca         1 I2U      -0.023800
      7 C9         193.3900   142.8330   171.7010 ca         1 I2U      -0.090000
      8 C11        193.0220   144.4270   170.1660 cd         1 I2U       0.259700
      9 C12        193.1380   144.0510   173.7740 ca         1 I2U      -0.064000
     10 C14        192.6690   146.4610   171.6610 c          1 I2U       0.647900
     11 C16        193.5990   141.6630   173.7550 ca         1 I2U      -0.101000
     12 C18        191.8380   147.2320   170.7160 cd         1 I2U      -0.332600
     13 C19        191.9750   148.5560   170.3930 cc         1 I2U      -0.067000
     14 N6         193.3030   143.0960   170.3320 n          1 I2U      -0.112600
     15 N7         192.8990   142.1890   168.2270 nt         1 I2U      -0.590000
     16 O3         193.0130   144.8930   168.9360 oh         1 I2U      -0.531100
     17 O4         193.1270   147.0070   172.6500 o          1 I2U      -0.510100
     18 O5         194.5560   141.3660   169.5290 o          1 I2U      -0.571100
     19 S2         190.4370   146.5550   169.9650 ss         1 I2U       0.231000
     20 CL1        193.3710   142.8460   176.1690 cl         1 I2U      -0.205000
     21 H2         193.7840   140.7090   171.8510 ha         1 I2U       0.139000
     22 H3         190.9070   150.0200   169.1300 ha         1 I2U       0.142000
     23 H4         189.1910   148.1180   168.5770 h4         1 I2U       0.154000
     24 H5         192.9580   144.9640   174.3230 ha         1 I2U       0.150000
     25 H6         193.7730   140.7500   174.3070 ha         1 I2U       0.131000
     26 H7         192.7840   149.1720   170.7620 ha         1 I2U       0.151000
     27 H8         193.1140   141.5650   167.4660 hn         1 I2U       0.336500
     28 H9         192.0820   142.7680   168.1340 hn         1 I2U       0.336500
     29 H1         192.9130   145.8550   168.9140 ho         1 I2U       0.514000
     30 C17        193.6510   142.1430   169.3240 c          1 I2U       0.680100
@<TRIPOS>BOND
     1     1     6 1   
     2     1     8 2   
     3     1    10 1   
     4     2     7 ar  
     5     2    11 ar  
     6     2    21 1   
     7     3     9 ar  
     8     3    11 ar  
     9     3    20 1   
    10     4     5 2   
    11     4    13 1   
    12     4    22 1   
    13     5    19 1   
    14     5    23 1   
    15     6     7 ar  
    16     6     9 ar  
    17     7    14 1   
    18     8    14 1   
    19     8    16 1   
    20     9    24 1   
    21    10    12 1   
    22    10    17 2   
    23    11    25 1   
    24    12    13 2   
    25    12    19 1   
    26    13    26 1   
    27    14    30 1   
    28    15    27 1   
    29    15    28 1   
    30    15    30 1   
    31    16    29 1   
    32    18    30 2   
@<TRIPOS>SUBSTRUCTURE
     1 I2U         1 TEMP              0 ****  ****    0 ROOT
