@<TRIPOS>MOLECULE
I2U
   30    32     1     0     0
SMALL
No Charge or Current Charge


@<TRIPOS>ATOM
      1 C10        192.8730   144.9690   171.3210 cc         1 I2U      -0.319400
      2 C13        193.6330   141.6090   172.4950 ca         1 I2U      -0.085000
      3 C15        193.5190   142.9910   174.5120 ca         1 I2U       0.111000
      4 C20        190.7830   149.1140   169.7230 cc         1 I2U      -0.143000
      5 C21        190.0540   148.1630   169.0590 cd         1 I2U      -0.236000
      6 C8         193.1650   143.9840   172.3400 ca         1 I2U      -0.023800
      7 C9         193.3510   142.7570   171.7310 ca         1 I2U      -0.090000
      8 C11        192.9730   144.2630   170.1340 cd         1 I2U       0.259700
      9 C12        193.2360   144.1300   173.7350 ca         1 I2U      -0.064000
     10 C14        192.6660   146.4260   171.5250 c          1 I2U       0.647900
     11 C16        193.7180   141.7370   173.8960 ca         1 I2U      -0.101000
     12 C18        191.8500   147.2040   170.5510 cd         1 I2U      -0.332600
     13 C19        191.7770   148.5780   170.5760 cc         1 I2U      -0.067000
     14 N6         193.2130   142.8850   170.3050 n          1 I2U      -0.112600
     15 N7         193.1160   142.2210   168.0260 nt         1 I2U      -0.590000
     16 O3         193.0440   144.8230   168.9080 oh         1 I2U      -0.531100
     17 O4         193.1390   146.9880   172.5020 o          1 I2U      -0.510100
     18 O5         193.5680   140.7060   169.5670 o          1 I2U      -0.571100
     19 S2         190.6030   146.5300   169.4730 ss         1 I2U       0.231000
     20 Cl1        193.6200   143.1300   176.2630 cl         1 I2U      -0.205000
     21 H2         193.7860   140.6370   172.0340 ha         1 I2U       0.139000
     22 H3         190.6110   150.1830   169.6350 ha         1 I2U       0.142000
     23 H4         189.2350   148.3040   168.3640 h4         1 I2U       0.154000
     24 H5         193.0750   145.0900   174.2160 ha         1 I2U       0.150000
     25 H6         193.9350   140.8640   174.5080 ha         1 I2U       0.131000
     26 H7         192.3970   149.2150   171.2030 ha         1 I2U       0.151000
     27 H8         193.1860   141.5210   167.3050 hn         1 I2U       0.336500
     28 H9         192.9280   143.1880   167.8030 hn         1 I2U       0.336500
     29 H1         193.1620   145.7880   169.0380 ho         1 I2U       0.514000
     30 C17        193.3190   141.8730   169.3130 c          1 I2U       0.680100
@<TRIPOS>BOND
     1     1     6 1   
     2     1     8 2   
     3     1    10 1   
     4     2     7 ar  
     5     2    11 ar  
     6     2    21 1   
     7     3     9 ar  
     8     3    11 ar  
     9     3    20 1   
    10     4     5 2   
    11     4    13 1   
    12     4    22 1   
    13     5    19 1   
    14     5    23 1   
    15     6     7 ar  
    16     6     9 ar  
    17     7    14 1   
    18     8    14 1   
    19     8    16 1   
    20     9    24 1   
    21    10    12 1   
    22    10    17 2   
    23    11    25 1   
    24    12    13 2   
    25    12    19 1   
    26    13    26 1   
    27    14    30 1   
    28    15    27 1   
    29    15    28 1   
    30    15    30 1   
    31    16    29 1   
    32    18    30 2   
@<TRIPOS>SUBSTRUCTURE
     1 I2U         1 TEMP              0 ****  ****    0 ROOT
