@<TRIPOS>MOLECULE
I2V
   22    22     1     0     0
SMALL
No Charge or Current Charge


@<TRIPOS>ATOM
      1 C10         -6.8760   -60.6830   -24.1890 c5         1 I2V      -0.053400
      2 C20         -6.6730   -59.0660   -26.2210 c3         1 I2V       0.192600
      3 C01         -4.7620   -61.9430   -24.5560 c5         1 I2V      -0.052400
      4 C02         -5.9880   -61.8260   -23.5830 c5         1 I2V      -0.189700
      5 C03         -5.5180   -61.4660   -22.1420 c          1 I2V       0.723000
      6 C06         -5.2580   -61.2280   -25.8410 c5         1 I2V       0.142500
      7 C08         -5.9390   -59.9830   -25.2170 c5         1 I2V      -0.102700
      8 F21         -7.2980   -58.0410   -25.5920 f          1 I2V      -0.281000
      9 N07         -4.1760   -60.9140   -26.7800 n8         1 I2V      -0.991200
     10 O04         -5.7970   -62.2340   -21.2340 o          1 I2V      -0.734000
     11 O05         -4.8960   -60.4320   -21.9390 o          1 I2V      -0.734000
     12 H1          -7.2550   -59.9890   -23.4300 hc         1 I2V       0.043200
     13 H2          -7.7550   -61.1070   -24.6890 hc         1 I2V       0.043200
     14 H3          -7.4240   -59.6430   -26.7760 h1         1 I2V       0.022200
     15 H4          -5.9560   -58.6440   -26.9370 h1         1 I2V       0.022200
     16 H5          -4.4880   -62.9880   -24.7440 hc         1 I2V       0.046200
     17 H6          -3.8670   -61.4520   -24.1540 hc         1 I2V       0.046200
     18 H7          -6.5470   -62.7680   -23.5520 hc         1 I2V       0.026700
     19 H8          -5.9850   -61.8510   -26.3820 h1         1 I2V      -0.001300
     20 H9          -5.2020   -59.3530   -24.7030 hc         1 I2V       0.081700
     21 H10         -3.7280   -61.7890   -27.0750 hn         1 I2V       0.375500
     22 H11         -4.5800   -60.5460   -27.6480 hn         1 I2V       0.375500
@<TRIPOS>BOND
     1     1     4 1   
     2     1     7 1   
     3     1    12 1   
     4     1    13 1   
     5     2     7 1   
     6     2     8 1   
     7     2    14 1   
     8     2    15 1   
     9     3     4 1   
    10     3     6 1   
    11     3    16 1   
    12     3    17 1   
    13     4     5 1   
    14     4    18 1   
    15     5    10 1   
    16     5    11 1   
    17     6     7 1   
    18     6     9 1   
    19     6    19 1   
    20     7    20 1   
    21     9    21 1   
    22     9    22 1   
@<TRIPOS>SUBSTRUCTURE
     1 I2V         1 TEMP              0 ****  ****    0 ROOT
