@<TRIPOS>MOLECULE
I2V
   22    22     1     0     0
SMALL
abcg2


@<TRIPOS>ATOM
      1 C10         -6.7580   -60.4380   -24.1350 c5         1 I2V      -0.053400
      2 C20         -6.6190   -59.1450   -26.3230 c3         1 I2V       0.192600
      3 C01         -4.9130   -61.9920   -24.5570 c5         1 I2V      -0.052400
      4 C02         -6.0400   -61.6730   -23.5550 c5         1 I2V      -0.189700
      5 C03         -5.5400   -61.5480   -22.0980 c          1 I2V       0.723000
      6 C06         -5.2850   -61.2480   -25.8350 c5         1 I2V       0.142500
      7 C08         -5.8780   -59.9490   -25.2860 c5         1 I2V      -0.102700
      8 F21         -7.2470   -58.0470   -25.7270 f          1 I2V      -0.281000
      9 N07         -4.1390   -61.0420   -26.7070 n8         1 I2V      -0.991200
     10 O04         -4.6940   -62.3950   -21.7420 o          1 I2V      -0.734000
     11 O05         -6.0340   -60.6540   -21.3820 o          1 I2V      -0.734000
     12 H1          -6.9200   -59.6720   -23.3790 hc         1 I2V       0.043200
     13 H2          -7.7430   -60.7130   -24.5240 hc         1 I2V       0.043200
     14 H3          -7.3950   -59.7540   -26.7960 h1         1 I2V       0.022200
     15 H4          -5.9530   -58.7610   -27.1000 h1         1 I2V       0.022200
     16 H5          -4.7780   -63.0630   -24.7240 hc         1 I2V       0.046200
     17 H6          -3.9550   -61.6010   -24.2040 hc         1 I2V       0.046200
     18 H7          -6.7450   -62.5120   -23.5490 hc         1 I2V       0.026700
     19 H8          -6.1010   -61.8000   -26.3340 h1         1 I2V      -0.001300
     20 H9          -5.0450   -59.3530   -24.8910 hc         1 I2V       0.081700
     21 H10         -3.7440   -61.9430   -26.9490 hn         1 I2V       0.375500
     22 H11         -4.4420   -60.6440   -27.5880 hn         1 I2V       0.375500
@<TRIPOS>BOND
     1     1     4 1   
     2     1     7 1   
     3     1    12 1   
     4     1    13 1   
     5     2     7 1   
     6     2     8 1   
     7     2    14 1   
     8     2    15 1   
     9     3     4 1   
    10     3     6 1   
    11     3    16 1   
    12     3    17 1   
    13     4     5 1   
    14     4    18 1   
    15     5    10 1   
    16     5    11 1   
    17     6     7 1   
    18     6     9 1   
    19     6    19 1   
    20     7    20 1   
    21     9    21 1   
    22     9    22 1   
@<TRIPOS>SUBSTRUCTURE
     1 I2V         1 TEMP              0 ****  ****    0 ROOT
