@<TRIPOS>MOLECULE
I2W
   38    40     1     0     0
SMALL
No Charge or Current Charge


@<TRIPOS>ATOM
      1 N1           2.7450    44.6410   -52.7000 n          1 I2W      -0.409800
      2 N3          -2.2220    48.8970   -51.1450 na         1 I2W      -0.194700
      3 C4           6.8830    44.2280   -51.1770 ca         1 I2W       0.356000
      4 C5           7.1390    43.8540   -49.8450 ca         1 I2W      -0.192000
      5 C6           5.2030    44.0750   -53.0820 c6         1 I2W       0.218800
      6 C7           3.7150    43.6700   -53.2890 c6         1 I2W       0.087500
      7 C8           3.2150    45.3500   -51.4690 c6         1 I2W       0.087500
      8 C10          1.4700    44.8540   -53.2710 c          1 I2W       0.618100
      9 C13         -3.2480    48.9610   -52.0560 cc         1 I2W       0.425400
     10 O            1.1100    44.2070   -54.2460 o          1 I2W      -0.585100
     11 C11          0.5660    45.9260   -52.6340 c3         1 I2W      -0.079400
     12 S           -0.9740    46.2970   -53.6120 ss         1 I2W      -0.194300
     13 C12         -1.7950    47.5360   -52.6570 cd         1 I2W       0.606300
     14 N4          -2.9940    48.1010   -53.0280 nd         1 I2W      -0.677000
     15 N2          -1.2790    47.9820   -51.5220 nc         1 I2W      -0.561800
     16 C9           4.4090    44.6580   -50.7450 c6         1 I2W       0.218800
     17 N            5.5550    44.3490   -51.6540 nh         1 I2W      -0.843400
     18 C            8.4560    43.7350   -49.3810 ca         1 I2W       0.169000
     19 Cl           8.7560    43.2610   -47.7140 cl         1 I2W      -0.214000
     20 C3           7.9750    44.4810   -52.0330 ca         1 I2W      -0.192000
     21 C2           9.2960    44.3630   -51.5690 ca         1 I2W      -0.057000
     22 C1           9.5360    43.9890   -50.2380 ca         1 I2W      -0.157000
     23 H2           6.3210    43.6400   -49.1660 ha         1 I2W       0.126000
     24 H3           5.8350    43.2650   -53.4780 h1         1 I2W       0.052950
     25 H4           5.4070    44.9700   -53.6880 h1         1 I2W       0.052950
     26 H5           3.5350    43.5640   -54.3680 h1         1 I2W       0.061450
     27 H6           3.5460    42.6840   -52.8340 h1         1 I2W       0.061450
     28 H7           3.5190    46.3680   -51.7480 h1         1 I2W       0.061450
     29 H8           2.3910    45.4390   -50.7480 h1         1 I2W       0.061450
     30 H9          -4.1030    49.6200   -51.9570 h5         1 I2W       0.067100
     31 H10          1.1500    46.8480   -52.5330 h1         1 I2W       0.090200
     32 H11          0.2820    45.5790   -51.6340 h1         1 I2W       0.090200
     33 H12          4.0450    43.7280   -50.2830 h1         1 I2W       0.052950
     34 H13          4.7380    45.3180   -49.9280 h1         1 I2W       0.052950
     35 H14          7.8050    44.7820   -53.0610 ha         1 I2W       0.115000
     36 H15         10.1300    44.5640   -52.2380 ha         1 I2W       0.114000
     37 H16         10.5550    43.8960   -49.8720 ha         1 I2W       0.131000
     38 H1          -2.1520    49.4490   -50.2940 hn         1 I2W       0.378000
@<TRIPOS>BOND
     1     1     6 1   
     2     1     7 1   
     3     1     8 1   
     4     2     9 1   
     5     2    15 1   
     6     2    38 1   
     7     3     4 ar  
     8     3    17 1   
     9     3    20 ar  
    10     4    18 ar  
    11     4    23 1   
    12     5     6 1   
    13     5    17 1   
    14     5    24 1   
    15     5    25 1   
    16     6    26 1   
    17     6    27 1   
    18     7    16 1   
    19     7    28 1   
    20     7    29 1   
    21     8    10 2   
    22     8    11 1   
    23     9    14 2   
    24     9    30 1   
    25    11    12 1   
    26    11    31 1   
    27    11    32 1   
    28    12    13 1   
    29    13    14 1   
    30    13    15 2   
    31    16    17 1   
    32    16    33 1   
    33    16    34 1   
    34    18    19 1   
    35    18    22 ar  
    36    20    21 ar  
    37    20    35 1   
    38    21    22 ar  
    39    21    36 1   
    40    22    37 1   
@<TRIPOS>SUBSTRUCTURE
     1 I2W         1 TEMP              0 ****  ****    0 ROOT
