@<TRIPOS>MOLECULE
I2W
   38    40     1     0     0
SMALL
bcc


@<TRIPOS>ATOM
      1 N1           2.8120    44.7640   -52.6960 n          1 I2W      -0.476800
      2 N3          -2.1480    48.7460   -51.1320 na         1 I2W      -0.144400
      3 C4           6.7380    44.1890   -51.2120 ca         1 I2W       0.217600
      4 C5           6.9880    44.0250   -49.8370 ca         1 I2W      -0.210000
      5 C6           5.1700    44.2480   -53.0980 c6         1 I2W       0.218800
      6 C7           3.7290    43.8320   -53.3330 c6         1 I2W       0.087500
      7 C8           3.3120    45.4660   -51.5240 c6         1 I2W       0.087500
      8 C10          1.5910    44.9600   -53.2200 c          1 I2W       0.685100
      9 C13         -3.1360    48.6730   -52.0180 cc         1 I2W       0.425400
     10 O            1.1760    44.3520   -54.1970 o          1 I2W      -0.585100
     11 C11          0.7220    45.9970   -52.5370 c3         1 I2W      -0.127300
     12 S           -0.7800    46.1690   -53.5290 ss         1 I2W      -0.146400
     13 C12         -1.6110    47.3680   -52.5720 cd         1 I2W       0.606300
     14 N4          -2.8320    47.8030   -52.9560 nd         1 I2W      -0.677000
     15 N2          -1.1540    47.9140   -51.4680 nc         1 I2W      -0.561800
     16 C9           4.3550    44.6310   -50.8040 c6         1 I2W       0.218800
     17 N            5.4610    44.3170   -51.6820 nh         1 I2W      -0.705000
     18 C            8.2880    43.9080   -49.3810 ca         1 I2W       0.077400
     19 CL           8.5450    43.7060   -47.6740 cl         1 I2W      -0.122400
     20 C3           7.8460    44.2110   -52.0800 ca         1 I2W      -0.210000
     21 C2           9.1310    44.0810   -51.5850 ca         1 I2W      -0.075000
     22 C1           9.3830    43.9320   -50.2280 ca         1 I2W      -0.175000
     23 H2           6.1750    43.9630   -49.1270 ha         1 I2W       0.144000
     24 H3           5.7990    43.4930   -53.5710 h1         1 I2W       0.052950
     25 H4           5.3720    45.1990   -53.6060 h1         1 I2W       0.052950
     26 H5           3.5440    43.8120   -54.4050 h1         1 I2W       0.061450
     27 H6           3.5710    42.8180   -52.9540 h1         1 I2W       0.061450
     28 H7           3.7410    46.4330   -51.8020 h1         1 I2W       0.061450
     29 H8           2.5050    45.6550   -50.8170 h1         1 I2W       0.061450
     30 H9          -4.0420    49.2550   -51.9490 h5         1 I2W       0.067100
     31 H10          1.2340    46.9580   -52.4560 h1         1 I2W       0.090200
     32 H11          0.4600    45.6780   -51.5260 h1         1 I2W       0.090200
     33 H12          3.8880    43.7300   -50.3900 h1         1 I2W       0.052950
     34 H13          4.7050    45.2250   -49.9580 h1         1 I2W       0.052950
     35 H14          7.7120    44.3540   -53.1420 ha         1 I2W       0.133000
     36 H15          9.9630    44.1100   -52.2770 ha         1 I2W       0.132000
     37 H16         10.3910    43.8370   -49.8480 ha         1 I2W       0.149000
     38 H1          -2.0840    49.3190   -50.3040 hn         1 I2W       0.327700
@<TRIPOS>BOND
     1     1     6 1   
     2     1     7 1   
     3     1     8 1   
     4     2     9 1   
     5     2    15 1   
     6     2    38 1   
     7     3     4 ar  
     8     3    17 1   
     9     3    20 ar  
    10     4    18 ar  
    11     4    23 1   
    12     5     6 1   
    13     5    17 1   
    14     5    24 1   
    15     5    25 1   
    16     6    26 1   
    17     6    27 1   
    18     7    16 1   
    19     7    28 1   
    20     7    29 1   
    21     8    10 2   
    22     8    11 1   
    23     9    14 2   
    24     9    30 1   
    25    11    12 1   
    26    11    31 1   
    27    11    32 1   
    28    12    13 1   
    29    13    14 1   
    30    13    15 2   
    31    16    17 1   
    32    16    33 1   
    33    16    34 1   
    34    18    19 1   
    35    18    22 ar  
    36    20    21 ar  
    37    20    35 1   
    38    21    22 ar  
    39    21    36 1   
    40    22    37 1   
@<TRIPOS>SUBSTRUCTURE
     1 I2W         1 TEMP              0 ****  ****    0 ROOT
