@<TRIPOS>MOLECULE
I2Z
   34    35     1     0     0
SMALL
bcc


@<TRIPOS>ATOM
      1 N1           6.6790    31.4440    32.1530 n8         1 I2Z      -0.901800
      2 N3           4.6490    31.3660    28.5770 ns         1 I2Z      -0.616500
      3 C4           4.9580    34.2510    31.8580 ca         1 I2Z      -0.120300
      4 C5           3.7160    34.6640    31.3780 ca         1 I2Z      -0.112000
      5 C6           2.7120    35.0510    32.2540 ca         1 I2Z      -0.136500
      6 C7           2.9360    35.0360    33.6260 ca         1 I2Z      -0.122000
      7 C8           4.1700    34.6300    34.1130 ca         1 I2Z      -0.136500
      8 C10          5.1420    32.5750    29.0560 c          1 I2Z       0.829500
      9 O1           4.9900    33.5780    28.3810 o          1 I2Z      -0.642500
     10 C11          4.8610    30.1200    29.0920 c          1 I2Z       0.687500
     11 O            4.3730    29.1330    28.5900 o          1 I2Z      -0.601500
     12 C1           5.8140    30.0940    30.2720 c6         1 I2Z       0.048500
     13 N            5.7510    28.9010    31.0710 n7         1 I2Z      -0.816200
     14 C            4.5050    28.6550    31.7770 c3         1 I2Z       0.143100
     15 N2           5.7580    32.5420    30.2620 n          1 I2Z      -0.472800
     16 C2           5.6780    31.3590    31.1320 c6         1 I2Z       0.356900
     17 C3           6.0490    33.8190    30.9070 c3         1 I2Z       0.156300
     18 C9           5.1710    34.2370    33.2330 ca         1 I2Z      -0.112000
     19 H1           6.4180    30.8650    32.9380 hn         1 I2Z       0.367800
     20 H2           7.5730    31.1070    31.8160 hn         1 I2Z       0.367800
     21 H4           4.1290    31.4320    27.7100 hn         1 I2Z       0.342500
     22 H5           3.5310    34.6960    30.3120 ha         1 I2Z       0.140000
     23 H6           1.7540    35.3730    31.8650 ha         1 I2Z       0.130500
     24 H7           2.1530    35.3400    34.3090 ha         1 I2Z       0.130000
     25 H8           4.3550    34.6150    35.1790 ha         1 I2Z       0.130500
     26 H9           6.8170    30.1360    29.8220 h1         1 I2Z       0.091700
     27 H10          5.9870    28.1030    30.4980 hn         1 I2Z       0.386800
     28 H12          4.5490    27.6590    32.2150 h1         1 I2Z       0.039367
     29 H13          4.3830    29.3560    32.6040 h1         1 I2Z       0.039367
     30 H14          3.6010    28.7060    31.1610 h1         1 I2Z       0.039367
     31 H15          4.7030    31.3650    31.6340 h2         1 I2Z       0.065700
     32 H16          6.9900    33.7290    31.4410 h1         1 I2Z       0.077700
     33 H17          6.1860    34.5620    30.1260 h1         1 I2Z       0.077700
     34 H18          6.1290    33.9090    33.6170 ha         1 I2Z       0.140000
@<TRIPOS>BOND
     1     1    16 1   
     2     1    19 1   
     3     1    20 1   
     4     2     8 1   
     5     2    10 1   
     6     2    21 1   
     7     3     4 ar  
     8     3    17 1   
     9     3    18 ar  
    10     4     5 ar  
    11     4    22 1   
    12     5     6 ar  
    13     5    23 1   
    14     6     7 ar  
    15     6    24 1   
    16     7    18 ar  
    17     7    25 1   
    18     8     9 2   
    19     8    15 1   
    20    10    11 2   
    21    10    12 1   
    22    12    13 1   
    23    12    16 1   
    24    12    26 1   
    25    13    14 1   
    26    13    27 1   
    27    14    28 1   
    28    14    29 1   
    29    14    30 1   
    30    15    16 1   
    31    15    17 1   
    32    16    31 1   
    33    17    32 1   
    34    17    33 1   
    35    18    34 1   
@<TRIPOS>SUBSTRUCTURE
     1 I2Z         1 TEMP              0 ****  ****    0 ROOT
