@<TRIPOS>MOLECULE
I2Z
   34    35     1     0     0
SMALL
No Charge or Current Charge


@<TRIPOS>ATOM
      1 N1           6.9620    31.3400    32.0520 n8         1 I2Z      -1.012200
      2 N3           4.5190    31.2750    28.6770 ns         1 I2Z      -0.482500
      3 C4           4.8650    34.3580    31.8620 ca         1 I2Z      -0.120300
      4 C5           3.8460    35.1980    31.3680 ca         1 I2Z      -0.094000
      5 C6           2.8330    35.6650    32.2250 ca         1 I2Z      -0.118500
      6 C7           2.8320    35.2960    33.5800 ca         1 I2Z      -0.104000
      7 C8           3.8460    34.4610    34.0790 ca         1 I2Z      -0.118500
      8 C10          4.8840    32.4980    29.1430 c          1 I2Z       0.620000
      9 O1           4.5460    33.5020    28.5410 o          1 I2Z      -0.567000
     10 C11          4.9210    30.0440    29.0940 c          1 I2Z       0.545000
     11 O            4.5620    29.0400    28.4950 o          1 I2Z      -0.526000
     12 C1           5.9060    30.0030    30.2950 c6         1 I2Z       0.048500
     13 N            5.8540    28.7370    31.1340 n7         1 I2Z      -0.871400
     14 C            4.6130    28.4690    31.8980 c3         1 I2Z       0.143100
     15 N2           5.6510    32.5290    30.3220 n          1 I2Z      -0.405800
     16 C2           5.8160    31.3130    31.1350 c6         1 I2Z       0.356900
     17 C3           5.9630    33.8480    30.9330 c3         1 I2Z       0.156300
     18 C9           4.8590    33.9950    33.2240 ca         1 I2Z      -0.094000
     19 H1           7.0200    30.3810    32.4180 hn         1 I2Z       0.423000
     20 H2           7.8110    31.4110    31.4840 hn         1 I2Z       0.423000
     21 H4           3.9290    31.2870    27.8600 hn         1 I2Z       0.342500
     22 H5           3.8370    35.4900    30.3200 ha         1 I2Z       0.122000
     23 H6           2.0490    36.3110    31.8370 ha         1 I2Z       0.112500
     24 H7           2.0480    35.6570    34.2430 ha         1 I2Z       0.112000
     25 H8           3.8470    34.1750    35.1290 ha         1 I2Z       0.112500
     26 H9           6.8860    30.0320    29.7960 h1         1 I2Z       0.091700
     27 H10          6.0060    27.9310    30.5080 hn         1 I2Z       0.442000
     28 H12          4.6990    27.5250    32.4530 h1         1 I2Z       0.039367
     29 H13          4.4120    29.2670    32.6250 h1         1 I2Z       0.039367
     30 H14          3.7460    28.3890    31.2280 h1         1 I2Z       0.039367
     31 H15          4.9230    31.2510    31.7770 h2         1 I2Z       0.065700
     32 H16          6.9080    33.7950    31.4880 h1         1 I2Z       0.077700
     33 H17          6.1330    34.5870    30.1380 h1         1 I2Z       0.077700
     34 H18          5.6390    33.3490    33.6190 ha         1 I2Z       0.122000
@<TRIPOS>BOND
     1     1    16 1   
     2     1    19 1   
     3     1    20 1   
     4     2     8 1   
     5     2    10 1   
     6     2    21 1   
     7     3     4 ar  
     8     3    17 1   
     9     3    18 ar  
    10     4     5 ar  
    11     4    22 1   
    12     5     6 ar  
    13     5    23 1   
    14     6     7 ar  
    15     6    24 1   
    16     7    18 ar  
    17     7    25 1   
    18     8     9 2   
    19     8    15 1   
    20    10    11 2   
    21    10    12 1   
    22    12    13 1   
    23    12    16 1   
    24    12    26 1   
    25    13    14 1   
    26    13    27 1   
    27    14    28 1   
    28    14    29 1   
    29    14    30 1   
    30    15    16 1   
    31    15    17 1   
    32    16    31 1   
    33    17    32 1   
    34    17    33 1   
    35    18    34 1   
@<TRIPOS>SUBSTRUCTURE
     1 I2Z         1 TEMP              0 ****  ****    0 ROOT
