@<TRIPOS>MOLECULE
I30
   36    38     1     0     0
SMALL
bcc


@<TRIPOS>ATOM
      1 CAA         -1.4080     1.9620     0.7360 c3         1 I30      -0.162400
      2 OAB          0.1500    -2.5700    -0.5360 o          1 I30      -0.518100
      3 BRAD         4.8890     1.2580    -1.9490 br         1 I30      -0.082100
      4 CAE         -7.7500    -0.5610    -0.4500 ca         1 I30      -0.110000
      5 CAF         -7.9040     0.7640    -0.0070 ca         1 I30      -0.154000
      6 CAG          4.9170    -1.0000    -0.2190 ca         1 I30      -0.035000
      7 CAH          4.3400    -2.0230     0.5130 ca         1 I30      -0.236000
      8 CAI         -6.5020    -1.1410    -0.5860 ca         1 I30      -0.131000
      9 CAJ         -6.8110     1.5480     0.3130 ca         1 I30      -0.067000
     10 CAK          2.7340    -0.2850    -0.9280 ca         1 I30      -0.040000
     11 NAL         -1.3630    -0.3840    -0.0510 n2         1 I30      -0.438300
     12 NAM         -4.0610    -0.5750    -0.2700 na         1 I30      -0.235300
     13 NAN         -0.0280    -0.3780     0.0310 ns         1 I30      -0.341900
     14 NAO         -4.3060     1.5210     0.4280 nc         1 I30      -0.573100
     15 CAP         -2.0040     0.6740     0.2670 cf         1 I30       0.320000
     16 CAQ          0.6730    -1.5160    -0.2530 c          1 I30       0.712700
     17 CAR          4.1100    -0.1330    -0.9410 ca         1 I30      -0.070900
     18 CAS          2.9590    -2.2000     0.5260 ca         1 I30       0.204100
     19 CAT          2.1510    -1.3200    -0.2020 ca         1 I30      -0.203600
     20 CAU         -3.4560     0.5670     0.1480 cd         1 I30       0.376500
     21 CAV         -5.4070    -0.3470    -0.2610 ca         1 I30      -0.075200
     22 CAW         -5.5420     0.9820     0.1830 ca         1 I30       0.066400
     23 HAA         -0.7250     2.3760    -0.0090 hc         1 I30       0.061700
     24 HAAA        -2.1820     2.7000     0.9250 hc         1 I30       0.061700
     25 HAAB        -0.8450     1.8210     1.6600 hc         1 I30       0.061700
     26 HOAC         3.0200    -3.6820     1.7230 ho         1 I30       0.436000
     27 HAE         -8.6320    -1.1410    -0.6880 ha         1 I30       0.130000
     28 HAF         -8.9000     1.1740     0.0860 ha         1 I30       0.131000
     29 HAG          5.9930    -0.8910    -0.2170 ha         1 I30       0.152000
     30 HAH          4.9780    -2.6910     1.0800 ha         1 I30       0.142000
     31 HAI         -6.3870    -2.1620    -0.9250 ha         1 I30       0.138000
     32 HAJ         -6.9330     2.5680     0.6540 ha         1 I30       0.145000
     33 HAK          2.1030     0.3810    -1.5020 ha         1 I30       0.154000
     34 HNAM        -3.5830    -1.4210    -0.5370 hn         1 I30       0.329700
     35 HNAN         0.4680     0.4310     0.3870 hn         1 I30       0.317500
     36 OAC          2.3660    -3.1680     1.2340 oh         1 I30      -0.466100
@<TRIPOS>BOND
     1     1    15 1   
     2     1    23 1   
     3     1    24 1   
     4     1    25 1   
     5     2    16 2   
     6     3    17 1   
     7     4     5 ar  
     8     4     8 ar  
     9     4    27 1   
    10     5     9 ar  
    11     5    28 1   
    12     6     7 ar  
    13     6    17 ar  
    14     6    29 1   
    15     7    18 ar  
    16     7    30 1   
    17     8    21 ar  
    18     8    31 1   
    19     9    22 ar  
    20     9    32 1   
    21    10    17 ar  
    22    10    19 ar  
    23    10    33 1   
    24    11    13 1   
    25    11    15 2   
    26    12    20 1   
    27    12    21 1   
    28    12    34 1   
    29    13    16 1   
    30    13    35 1   
    31    14    20 2   
    32    14    22 1   
    33    15    20 1   
    34    16    19 1   
    35    18    19 ar  
    36    18    36 1   
    37    21    22 ar  
    38    26    36 1   
@<TRIPOS>SUBSTRUCTURE
     1 I30         1 TEMP              0 ****  ****    0 ROOT
