@<TRIPOS>MOLECULE
I30
   36    38     1     0     0
SMALL
No Charge or Current Charge


@<TRIPOS>ATOM
      1 CAA         -1.2960     1.6540     0.3960 c3         1 I30      -0.162400
      2 OAB          0.1040    -1.8420     1.1080 o          1 I30      -0.518100
      3 BrAD         5.0070     1.6320    -1.3280 br         1 I30      -0.082100
      4 CAE         -7.9950    -0.3910    -0.3050 ca         1 I30      -0.092000
      5 CAF         -7.9890     0.8160     0.4320 ca         1 I30      -0.136000
      6 CAG          5.0270    -0.9280    -0.0120 ca         1 I30      -0.017000
      7 CAH          4.4380    -2.0560     0.5790 ca         1 I30      -0.218000
      8 CAI         -6.7800    -0.9580    -0.7430 ca         1 I30      -0.113000
      9 CAJ         -6.7700     1.4610     0.7340 ca         1 I30      -0.049000
     10 CAK          2.8130    -0.0230    -0.4630 ca         1 I30      -0.022000
     11 NAL         -1.3880    -0.4790    -0.8540 n2         1 I30      -0.438300
     12 NAM         -4.3070    -0.6270    -0.7270 na         1 I30      -0.285600
     13 NAN         -0.0010    -0.5570    -0.7830 ns         1 I30      -0.274900
     14 NAO         -4.2830     1.3370     0.4710 nc         1 I30      -0.573100
     15 CAP         -2.0410     0.4690    -0.2260 cf         1 I30       0.320000
     16 CAQ          0.6930    -1.2530     0.2070 c          1 I30       0.645700
     17 CAR          4.2110     0.0850    -0.5310 ca         1 I30      -0.070900
     18 CAS          3.0400    -2.1750     0.6540 ca         1 I30       0.204100
     19 CAT          2.2030    -1.1580     0.1300 ca         1 I30      -0.203600
     20 CAU         -3.5290     0.4000    -0.1590 cd         1 I30       0.376500
     21 CAV         -5.5930    -0.2860    -0.4220 ca         1 I30      -0.075200
     22 CAW         -5.5740     0.8780     0.2870 ca         1 I30       0.066400
     23 HAA         -0.6690     2.1580    -0.3480 hc         1 I30       0.061700
     24 HAAA        -1.9690     2.4130     0.8100 hc         1 I30       0.061700
     25 HAAB        -0.6460     1.3240     1.2150 hc         1 I30       0.061700
     26 HOAC         3.2640    -3.8750     1.5010 ho         1 I30       0.475000
     27 HAE         -8.9380    -0.8830    -0.5350 ha         1 I30       0.112000
     28 HAF         -8.9280     1.2510     0.7680 ha         1 I30       0.113000
     29 HAG          6.1110    -0.8410    -0.0670 ha         1 I30       0.134000
     30 HAH          5.0800    -2.8400     0.9740 ha         1 I30       0.124000
     31 HAI         -6.7680    -1.8860    -1.3100 ha         1 I30       0.120000
     32 HAJ         -6.7550     2.3900     1.3000 ha         1 I30       0.127000
     33 HAK          2.2160     0.7980    -0.8540 ha         1 I30       0.136000
     34 HNAM        -3.9630    -1.4290    -1.2410 hn         1 I30       0.380000
     35 HNAN         0.5760    -0.1310    -1.5020 hn         1 I30       0.317500
     36 OAC          2.5220    -3.3080     1.2050 oh         1 I30      -0.505100
@<TRIPOS>BOND
     1     1    15 1   
     2     1    23 1   
     3     1    24 1   
     4     1    25 1   
     5     2    16 2   
     6     3    17 1   
     7     4     5 ar  
     8     4     8 ar  
     9     4    27 1   
    10     5     9 ar  
    11     5    28 1   
    12     6     7 ar  
    13     6    17 ar  
    14     6    29 1   
    15     7    18 ar  
    16     7    30 1   
    17     8    21 ar  
    18     8    31 1   
    19     9    22 ar  
    20     9    32 1   
    21    10    17 ar  
    22    10    19 ar  
    23    10    33 1   
    24    11    13 1   
    25    11    15 2   
    26    12    20 1   
    27    12    21 1   
    28    12    34 1   
    29    13    16 1   
    30    13    35 1   
    31    14    20 2   
    32    14    22 1   
    33    15    20 1   
    34    16    19 1   
    35    18    19 ar  
    36    18    36 1   
    37    21    22 ar  
    38    26    36 1   
@<TRIPOS>SUBSTRUCTURE
     1 I30         1 TEMP              0 ****  ****    0 ROOT
