@<TRIPOS>MOLECULE
I31
   66    69     1     0     0
SMALL
No Charge or Current Charge


@<TRIPOS>ATOM
      1 N1           0.5010     1.5940    -1.7410 nu         1 I31      -0.904400
      2 C5          -0.8970     1.1240    -1.8230 c5         1 I31       0.245500
      3 C57         -1.6580     2.0950    -2.7680 c3         1 I31      -0.075100
      4 C51         -1.5640     1.0180    -0.4120 ca         1 I31      -0.100300
      5 C4          -0.6410    -0.3540    -2.4210 c5         1 I31       0.179500
      6 C47         -0.5690    -0.4290    -3.9780 c3         1 I31      -0.078100
      7 C41         -1.7320    -1.3070    -1.8600 ca         1 I31      -0.057300
      8 N3           0.7380    -0.6840    -1.9700 n2         1 I31      -0.604900
      9 C2           1.2610     0.4410    -1.6450 ce         1 I31       0.640800
     10 C21          2.5910     0.5690    -0.9870 ca         1 I31      -0.179900
     11 C56         -0.8070     0.8030     0.7700 ca         1 I31      -0.090000
     12 C55         -1.4290     0.6690     2.0230 ca         1 I31      -0.104500
     13 C54         -2.8220     0.7510     2.1290 ca         1 I31       0.124000
     14 Cl5         -3.5990     0.5730     3.6970 cl         1 I31      -0.206000
     15 C53         -3.5940     0.9730     0.9830 ca         1 I31      -0.104500
     16 C52         -2.9730     1.1080    -0.2710 ca         1 I31      -0.090000
     17 C42         -3.0330    -1.3360    -2.4190 ca         1 I31      -0.087000
     18 C43         -4.0300    -2.1710    -1.8870 ca         1 I31      -0.111000
     19 C44         -3.7470    -2.9930    -0.7880 ca         1 I31       0.123000
     20 Cl4         -4.9990    -4.0310    -0.1180 cl         1 I31      -0.213000
     21 C45         -2.4660    -2.9840    -0.2210 ca         1 I31      -0.111000
     22 C46         -1.4680    -2.1500    -0.7530 ca         1 I31      -0.087000
     23 C22          3.4870     1.5420    -1.4670 ca         1 I31      -0.050000
     24 C23          4.7670     1.6830    -0.9110 ca         1 I31      -0.154000
     25 C24          5.1970     0.8480     0.1440 ca         1 I31      -0.007300
     26 C30          6.6050     0.9680     0.7900 c3         1 I31      -0.005700
     27 C32          7.3650    -0.3760     0.6210 c3         1 I31      -0.082767
     28 C31          7.4750     2.0900     0.1540 c3         1 I31      -0.082767
     29 C25          4.2930    -0.1300     0.6180 ca         1 I31      -0.209000
     30 C26          3.0020    -0.2800     0.0640 ca         1 I31       0.182100
     31 O27          2.1090    -1.2100     0.5660 os         1 I31      -0.338100
     32 C28          2.3920    -2.0120     1.7240 c3         1 I31       0.164600
     33 C29          1.1480    -2.8630     2.0200 c3         1 I31      -0.098100
     34 C33          6.4510     1.2860     2.3030 c3         1 I31      -0.082767
     35 H1           0.7700     2.3160    -1.0790 hn         1 I31       0.476000
     36 H3          -1.8490     3.0540    -2.2710 hc         1 I31       0.045700
     37 H4          -1.0830     2.3110    -3.6760 hc         1 I31       0.045700
     38 H5          -2.6220     1.6850    -3.0880 hc         1 I31       0.045700
     39 H6           0.2260     0.2120    -4.3770 hc         1 I31       0.044367
     40 H7          -0.3610    -1.4540    -4.3090 hc         1 I31       0.044367
     41 H8          -1.5010    -0.1170    -4.4590 hc         1 I31       0.044367
     42 H12          0.2740     0.7270     0.7390 ha         1 I31       0.119000
     43 H13         -0.8280     0.4980     2.9120 ha         1 I31       0.128000
     44 H14         -4.6760     1.0350     1.0630 ha         1 I31       0.128000
     45 H15         -3.6120     1.2600    -1.1360 ha         1 I31       0.119000
     46 H16         -3.2900    -0.6960    -3.2590 ha         1 I31       0.126500
     47 H17         -5.0260    -2.1760    -2.3240 ha         1 I31       0.125500
     48 H18         -2.2460    -3.6180     0.6340 ha         1 I31       0.125500
     49 H19         -0.4880    -2.1510    -0.2860 ha         1 I31       0.126500
     50 H20          3.1910     2.1930    -2.2890 ha         1 I31       0.124000
     51 H21          5.4100     2.4520    -1.3260 ha         1 I31       0.120000
     52 H22          7.4510    -0.6400    -0.4400 hc         1 I31       0.036478
     53 H23          8.3780    -0.3090     1.0360 hc         1 I31       0.036478
     54 H24          6.8540    -1.1990     1.1330 hc         1 I31       0.036478
     55 H25          7.0000     3.0720     0.2680 hc         1 I31       0.036478
     56 H26          8.4590     2.1430     0.6360 hc         1 I31       0.036478
     57 H27          7.6420     1.9030    -0.9140 hc         1 I31       0.036478
     58 H28          4.6090    -0.7760     1.4290 ha         1 I31       0.119000
     59 H29          3.2510    -2.6710     1.5420 h1         1 I31       0.033700
     60 H30          2.6100    -1.3760     2.5920 h1         1 I31       0.033700
     61 H31          0.2730    -2.2240     2.1900 hc         1 I31       0.050033
     62 H32          0.9350    -3.5400     1.1840 hc         1 I31       0.050033
     63 H33          1.3090    -3.4700     2.9190 hc         1 I31       0.050033
     64 H34          5.9280     0.4840     2.8350 hc         1 I31       0.036478
     65 H35          7.4310     1.4130     2.7790 hc         1 I31       0.036478
     66 H36          5.8830     2.2130     2.4460 hc         1 I31       0.036478
@<TRIPOS>BOND
     1     1     2 1   
     2     1     9 1   
     3     1    35 1   
     4     2     3 1   
     5     2     4 1   
     6     2     5 1   
     7     3    36 1   
     8     3    37 1   
     9     3    38 1   
    10     4    11 ar  
    11     4    16 ar  
    12     5     6 1   
    13     5     7 1   
    14     5     8 1   
    15     6    39 1   
    16     6    40 1   
    17     6    41 1   
    18     7    17 ar  
    19     7    22 ar  
    20     8     9 2   
    21     9    10 1   
    22    10    23 ar  
    23    10    30 ar  
    24    11    12 ar  
    25    11    42 1   
    26    12    13 ar  
    27    12    43 1   
    28    13    14 1   
    29    13    15 ar  
    30    15    16 ar  
    31    15    44 1   
    32    16    45 1   
    33    17    18 ar  
    34    17    46 1   
    35    18    19 ar  
    36    18    47 1   
    37    19    20 1   
    38    19    21 ar  
    39    21    22 ar  
    40    21    48 1   
    41    22    49 1   
    42    23    24 ar  
    43    23    50 1   
    44    24    25 ar  
    45    24    51 1   
    46    25    26 1   
    47    25    29 ar  
    48    26    27 1   
    49    26    28 1   
    50    26    34 1   
    51    27    52 1   
    52    27    53 1   
    53    27    54 1   
    54    28    55 1   
    55    28    56 1   
    56    28    57 1   
    57    29    30 ar  
    58    29    58 1   
    59    30    31 1   
    60    31    32 1   
    61    32    33 1   
    62    32    59 1   
    63    32    60 1   
    64    33    61 1   
    65    33    62 1   
    66    33    63 1   
    67    34    64 1   
    68    34    65 1   
    69    34    66 1   
@<TRIPOS>SUBSTRUCTURE
     1 I31         1 TEMP              0 ****  ****    0 ROOT
