@<TRIPOS>MOLECULE
I31
   66    69     1     0     0
SMALL
abcg2


@<TRIPOS>ATOM
      1 N1           0.4510     1.5930    -1.5200 nu         1 I31      -0.904400
      2 C5          -0.9320     1.1730    -1.6980 c5         1 I31       0.245500
      3 C57         -1.6850     2.1490    -2.5920 c3         1 I31      -0.075100
      4 C51         -1.6360     1.0160    -0.3500 ca         1 I31      -0.100300
      5 C4          -0.6530    -0.2540    -2.3590 c5         1 I31       0.179500
      6 C47         -0.5410    -0.1700    -3.8850 c3         1 I31      -0.078100
      7 C41         -1.6750    -1.2870    -1.9330 ca         1 I31      -0.057300
      8 N3           0.6740    -0.6130    -1.8620 n2         1 I31      -0.604900
      9 C2           1.2170     0.4570    -1.4340 ce         1 I31       0.640800
     10 C21          2.5890     0.5530    -0.9030 ca         1 I31      -0.179900
     11 C56         -0.9280     0.8850     0.8400 ca         1 I31      -0.090000
     12 C55         -1.5710     0.6620     2.0510 ca         1 I31      -0.104500
     13 C54         -2.9500     0.5710     2.0770 ca         1 I31       0.124000
     14 CL5         -3.7670     0.2830     3.5800 cl         1 I31      -0.206000
     15 C53         -3.6880     0.7130     0.9130 ca         1 I31      -0.104500
     16 C52         -3.0270     0.9360    -0.2830 ca         1 I31      -0.090000
     17 C42         -2.8890    -1.4370    -2.5950 ca         1 I31      -0.087000
     18 C43         -3.8550    -2.3240    -2.1390 ca         1 I31      -0.111000
     19 C44         -3.5980    -3.0770    -1.0080 ca         1 I31       0.123000
     20 CL4         -4.8000    -4.1870    -0.4250 cl         1 I31      -0.213000
     21 C45         -2.3920    -2.9610    -0.3360 ca         1 I31      -0.111000
     22 C46         -1.4410    -2.0710    -0.8060 ca         1 I31      -0.087000
     23 C22          3.4820     1.4690    -1.4360 ca         1 I31      -0.050000
     24 C23          4.7790     1.5820    -0.9540 ca         1 I31      -0.154000
     25 C24          5.2090     0.7850     0.1010 ca         1 I31      -0.007300
     26 C30          6.6200     0.8640     0.6760 c3         1 I31      -0.005700
     27 C32          7.2810    -0.5190     0.5930 c3         1 I31      -0.082767
     28 C31          7.4990     1.8570    -0.0850 c3         1 I31      -0.082767
     29 C25          4.3020    -0.1210     0.6570 ca         1 I31      -0.209000
     30 C26          3.0090    -0.2530     0.1670 ca         1 I31       0.182100
     31 O27          2.0990    -1.1000     0.6730 os         1 I31      -0.338100
     32 C28          2.3720    -1.7890     1.8840 c3         1 I31       0.164600
     33 C29          1.1390    -2.5810     2.2490 c3         1 I31      -0.098100
     34 C33          6.5430     1.3080     2.1430 c3         1 I31      -0.082767
     35 H1           0.6500     2.3680    -0.9030 hn         1 I31       0.476000
     36 H3          -1.8640     3.0860    -2.0630 hc         1 I31       0.045700
     37 H4          -1.1120     2.3770    -3.4890 hc         1 I31       0.045700
     38 H5          -2.6530     1.7600    -2.9040 hc         1 I31       0.045700
     39 H6           0.2180     0.5550    -4.1770 hc         1 I31       0.044367
     40 H7          -0.2500    -1.1430    -4.2790 hc         1 I31       0.044367
     41 H8          -1.4720     0.1200    -4.3700 hc         1 I31       0.044367
     42 H12          0.1500     0.9450     0.8610 ha         1 I31       0.119000
     43 H13         -0.9920     0.5600     2.9580 ha         1 I31       0.128000
     44 H14         -4.7670     0.6480     0.9320 ha         1 I31       0.128000
     45 H15         -3.6290     1.0290    -1.1750 ha         1 I31       0.119000
     46 H16         -3.1170    -0.8550    -3.4790 ha         1 I31       0.126500
     47 H17         -4.7960    -2.4180    -2.6660 ha         1 I31       0.125500
     48 H18         -2.1930    -3.5540     0.5460 ha         1 I31       0.125500
     49 H19         -0.5020    -1.9750    -0.2780 ha         1 I31       0.126500
     50 H20          3.1660     2.0980    -2.2590 ha         1 I31       0.124000
     51 H21          5.4400     2.2990    -1.4180 ha         1 I31       0.120000
     52 H22          7.3510    -0.8580    -0.4420 hc         1 I31       0.036478
     53 H23          8.2930    -0.4760     1.0010 hc         1 I31       0.036478
     54 H24          6.7330    -1.2740     1.1570 hc         1 I31       0.036478
     55 H25          7.1080     2.8750    -0.0400 hc         1 I31       0.036478
     56 H26          8.4960     1.8730     0.3560 hc         1 I31       0.036478
     57 H27          7.6100     1.5810    -1.1350 hc         1 I31       0.036478
     58 H28          4.6210    -0.7330     1.4900 ha         1 I31       0.119000
     59 H29          3.2300    -2.4590     1.7600 h1         1 I31       0.033700
     60 H30          2.6210    -1.0740     2.6760 h1         1 I31       0.033700
     61 H31          0.2670    -1.9340     2.3470 hc         1 I31       0.050033
     62 H32          0.9210    -3.3440     1.5010 hc         1 I31       0.050033
     63 H33          1.2960    -3.0830     3.2030 hc         1 I31       0.050033
     64 H34          5.9580     0.6180     2.7530 hc         1 I31       0.036478
     65 H35          7.5460     1.3590     2.5730 hc         1 I31       0.036478
     66 H36          6.0920     2.2980     2.2320 hc         1 I31       0.036478
@<TRIPOS>BOND
     1     1     2 1   
     2     1     9 1   
     3     1    35 1   
     4     2     3 1   
     5     2     4 1   
     6     2     5 1   
     7     3    36 1   
     8     3    37 1   
     9     3    38 1   
    10     4    11 ar  
    11     4    16 ar  
    12     5     6 1   
    13     5     7 1   
    14     5     8 1   
    15     6    39 1   
    16     6    40 1   
    17     6    41 1   
    18     7    17 ar  
    19     7    22 ar  
    20     8     9 2   
    21     9    10 1   
    22    10    23 ar  
    23    10    30 ar  
    24    11    12 ar  
    25    11    42 1   
    26    12    13 ar  
    27    12    43 1   
    28    13    14 1   
    29    13    15 ar  
    30    15    16 ar  
    31    15    44 1   
    32    16    45 1   
    33    17    18 ar  
    34    17    46 1   
    35    18    19 ar  
    36    18    47 1   
    37    19    20 1   
    38    19    21 ar  
    39    21    22 ar  
    40    21    48 1   
    41    22    49 1   
    42    23    24 ar  
    43    23    50 1   
    44    24    25 ar  
    45    24    51 1   
    46    25    26 1   
    47    25    29 ar  
    48    26    27 1   
    49    26    28 1   
    50    26    34 1   
    51    27    52 1   
    52    27    53 1   
    53    27    54 1   
    54    28    55 1   
    55    28    56 1   
    56    28    57 1   
    57    29    30 ar  
    58    29    58 1   
    59    30    31 1   
    60    31    32 1   
    61    32    33 1   
    62    32    59 1   
    63    32    60 1   
    64    33    61 1   
    65    33    62 1   
    66    33    63 1   
    67    34    64 1   
    68    34    65 1   
    69    34    66 1   
@<TRIPOS>SUBSTRUCTURE
     1 I31         1 TEMP              0 ****  ****    0 ROOT
