@<TRIPOS>MOLECULE
I33
   38    41     1     0     0
SMALL
No Charge or Current Charge


@<TRIPOS>ATOM
      1 C02        143.3150   139.5570    89.8930 c          1 I33       0.636300
      2 C03        144.0080   138.3650    90.4340 cc         1 I33      -0.146600
      3 C04        143.4290   137.2910    91.0990 cd         1 I33      -0.143200
      4 C05        144.3650   136.2730    91.5080 ca         1 I33      -0.075800
      5 C06        145.6530   136.6040    91.1380 ca         1 I33      -0.188000
      6 C07        146.7250   135.7480    91.4390 ca         1 I33       0.139000
      7 C09        146.4660   134.5460    92.1260 ca         1 I33      -0.085000
      8 C10        145.1450   134.2120    92.5020 ca         1 I33      -0.110000
      9 C11        144.0810   135.0820    92.1930 ca         1 I33      -0.066000
     10 C14        141.0370   140.6360    89.6450 c6         1 I33       0.077700
     11 C15        140.7480   140.5590    88.1010 c6         1 I33       0.134800
     12 C16        139.6760   140.5580    90.4020 c6         1 I33      -0.084700
     13 C17        138.8080   141.7600    89.9310 c6         1 I33      -0.106900
     14 C18        138.5940   141.6840    88.3840 c6         1 I33       0.144800
     15 C21        138.9260   139.2570    89.9850 c6         1 I33      -0.106900
     16 N13        141.9520   139.5700    90.0870 ns         1 I33      -0.485900
     17 N19        139.2770   140.4810    87.8140 n3         1 I33      -0.678600
     18 O01        143.8890   140.4680    89.3140 o          1 I33      -0.603100
     19 S12        145.7740   138.1680    90.2770 ss         1 I33       0.215400
     20 Cl08       148.3710   136.1610    90.9710 cl         1 I33      -0.184000
     21 H1         142.3660   137.2050    91.3030 ha         1 I33       0.198000
     22 H2         147.2860   133.8730    92.3650 ha         1 I33       0.130000
     23 H3         144.9500   133.2820    93.0320 ha         1 I33       0.120000
     24 H4         143.0610   134.8330    92.4780 ha         1 I33       0.120000
     25 H5         141.5090   141.6050    89.8670 h1         1 I33       0.090700
     26 H6         141.2620   139.6850    87.6730 h1         1 I33       0.062200
     27 H7         141.1870   141.4430    87.6140 h1         1 I33       0.062200
     28 H8         139.8290   140.5950    91.4900 hc         1 I33       0.068700
     29 H9         139.2930   142.7100    90.1960 hc         1 I33       0.047200
     30 H10        137.8360   141.7540    90.4440 hc         1 I33       0.047200
     31 H11        138.9810   142.6030    87.9180 h1         1 I33       0.054950
     32 H12        137.5150   141.6510    88.1680 h1         1 I33       0.054950
     33 H13        137.6420   139.1530    88.2160 h1         1 I33       0.054950
     34 H14        139.2000   138.3480    88.0140 h1         1 I33       0.054950
     35 H15        137.9520   139.2040    90.4910 hc         1 I33       0.047200
     36 H16        139.4810   138.3630    90.2980 hc         1 I33       0.047200
     37 H17        141.5580   138.7800    90.5770 hn         1 I33       0.313500
     38 C20        138.7170   139.2420    88.4370 c6         1 I33       0.144800
@<TRIPOS>BOND
     1     1     2 1   
     2     1    16 1   
     3     1    18 2   
     4     2     3 2   
     5     2    19 1   
     6     3     4 1   
     7     3    21 1   
     8     4     5 ar  
     9     4     9 ar  
    10     5     6 ar  
    11     5    19 1   
    12     6     7 ar  
    13     6    20 1   
    14     7     8 ar  
    15     7    22 1   
    16     8     9 ar  
    17     8    23 1   
    18     9    24 1   
    19    10    11 1   
    20    10    12 1   
    21    10    16 1   
    22    10    25 1   
    23    11    17 1   
    24    11    26 1   
    25    11    27 1   
    26    12    13 1   
    27    12    15 1   
    28    12    28 1   
    29    13    14 1   
    30    13    29 1   
    31    13    30 1   
    32    14    17 1   
    33    14    31 1   
    34    14    32 1   
    35    15    35 1   
    36    15    36 1   
    37    15    38 1   
    38    16    37 1   
    39    17    38 1   
    40    33    38 1   
    41    34    38 1   
@<TRIPOS>SUBSTRUCTURE
     1 I33         1 TEMP              0 ****  ****    0 ROOT
