@<TRIPOS>MOLECULE
I33
   38    41     1     0     0
SMALL
bcc


@<TRIPOS>ATOM
      1 C02        143.1500   139.4980    90.2100 c          1 I33       0.703300
      2 C03        143.8240   138.2550    90.6530 cc         1 I33      -0.146600
      3 C04        143.3570   136.9980    90.8520 cd         1 I33      -0.093200
      4 C05        144.3690   136.1050    91.3250 ca         1 I33      -0.075800
      5 C06        145.6030   136.7630    91.4690 ca         1 I33      -0.061100
      6 C07        146.7220   136.0720    91.9220 ca         1 I33       0.047400
      7 C09        146.6170   134.7330    92.2320 ca         1 I33      -0.103000
      8 C10        145.3880   134.0770    92.0890 ca         1 I33      -0.128000
      9 C11        144.2690   134.7460    91.6430 ca         1 I33      -0.084000
     10 C14        141.0520   140.4690    89.3490 c6         1 I33       0.077700
     11 C15        140.4530   140.2340    87.9340 c6         1 I33       0.134800
     12 C16        139.8790   140.7080    90.3090 c6         1 I33      -0.084700
     13 C17        139.1450   141.9640    89.8340 c6         1 I33      -0.106900
     14 C18        138.6450   141.7140    88.3890 c6         1 I33       0.144800
     15 C21        138.9070   139.5280    90.2600 c6         1 I33      -0.106900
     16 N13        141.8930   139.3670    89.7660 ns         1 I33      -0.552900
     17 N19        139.0070   140.3800    87.9260 n3         1 I33      -0.678600
     18 O01        143.7640   140.5570    90.2700 o          1 I33      -0.603100
     19 S12        145.5110   138.4300    91.0370 ss         1 I33       0.088500
     20 CL08       148.2180   136.9160    92.0920 cl         1 I33      -0.092400
     21 H1         142.3340   136.6840    90.6920 ha         1 I33       0.148000
     22 H2         147.4830   134.1910    92.5860 ha         1 I33       0.148000
     23 H3         145.3270   133.0260    92.3370 ha         1 I33       0.138000
     24 H4         143.3220   134.2320    91.5370 ha         1 I33       0.138000
     25 H5         141.6810   141.3600    89.3470 h1         1 I33       0.090700
     26 H6         140.7010   139.2290    87.5800 h1         1 I33       0.062200
     27 H7         140.8850   140.9360    87.2180 h1         1 I33       0.062200
     28 H8         140.2610   140.8520    91.3220 hc         1 I33       0.068700
     29 H9         139.8130   142.8280    89.8740 hc         1 I33       0.047200
     30 H10        138.3130   142.1790    90.5080 hc         1 I33       0.047200
     31 H11        139.0690   142.4440    87.6970 h1         1 I33       0.054950
     32 H12        137.5590   141.8140    88.3270 h1         1 I33       0.054950
     33 H13        137.3250   139.4790    88.7460 h1         1 I33       0.054950
     34 H14        138.6560   138.3900    88.4060 h1         1 I33       0.054950
     35 H15        138.0770   139.7180    90.9440 hc         1 I33       0.047200
     36 H16        139.3860   138.6110    90.6130 hc         1 I33       0.047200
     37 H17        141.4910   138.4430    89.7280 hn         1 I33       0.313500
     38 C20        138.4110   139.3780    88.8020 c6         1 I33       0.144800
@<TRIPOS>BOND
     1     1     2 1   
     2     1    16 1   
     3     1    18 2   
     4     2     3 2   
     5     2    19 1   
     6     3     4 1   
     7     3    21 1   
     8     4     5 ar  
     9     4     9 ar  
    10     5     6 ar  
    11     5    19 1   
    12     6     7 ar  
    13     6    20 1   
    14     7     8 ar  
    15     7    22 1   
    16     8     9 ar  
    17     8    23 1   
    18     9    24 1   
    19    10    11 1   
    20    10    12 1   
    21    10    16 1   
    22    10    25 1   
    23    11    17 1   
    24    11    26 1   
    25    11    27 1   
    26    12    13 1   
    27    12    15 1   
    28    12    28 1   
    29    13    14 1   
    30    13    29 1   
    31    13    30 1   
    32    14    17 1   
    33    14    31 1   
    34    14    32 1   
    35    15    35 1   
    36    15    36 1   
    37    15    38 1   
    38    16    37 1   
    39    17    38 1   
    40    33    38 1   
    41    34    38 1   
@<TRIPOS>SUBSTRUCTURE
     1 I33         1 TEMP              0 ****  ****    0 ROOT
