@<TRIPOS>MOLECULE
I34
   35    36     1     0     0
SMALL
No Charge or Current Charge


@<TRIPOS>ATOM
      1 C01        113.4500   128.7540   113.3870 c3         1 I34       0.149900
      2 C03        112.4460   130.8080   114.3410 ca         1 I34       0.132100
      3 C04        112.4100   131.4560   113.0870 ca         1 I34      -0.196000
      4 C05        111.8970   132.7680   112.9800 ca         1 I34       0.116100
      5 C07        112.3060   132.8490   110.5370 c3         1 I34       0.150900
      6 C08        111.4170   133.4420   114.1250 ca         1 I34      -0.047000
      7 C10        110.3770   135.6890   114.8360 c          1 I34       0.665100
      8 C13        109.4610   137.9930   114.7360 cc         1 I34       0.408900
      9 C14        109.1600   139.0970   113.9300 cc         1 I34      -0.295000
     10 C15        108.6350   140.0150   114.7750 cd         1 I34       0.212300
     11 C16        108.1200   141.4010   114.5200 c3         1 I34      -0.139400
     12 C19        111.4560   132.7870   115.3760 ca         1 I34      -0.066000
     13 C20        111.9660   131.4830   115.4810 ca         1 I34       0.082000
     14 N09        110.9120   134.7650   113.9520 ns         1 I34      -0.162000
     15 N12        110.0200   136.8560   114.2000 ns         1 I34      -0.497400
     16 N18        109.1570   138.1720   116.0090 nd         1 I34      -0.358300
     17 O02        112.9390   129.5230   114.4910 os         1 I34      -0.349100
     18 O06        111.8460   133.4350   111.7680 os         1 I34      -0.354100
     19 O11        110.2370   135.4980   116.0350 o          1 I34      -0.559100
     20 O17        108.6100   139.5070   116.0470 os         1 I34      -0.075700
     21 Cl1        111.9940   130.7060   117.0660 cl         1 I34      -0.178000
     22 H1         113.7870   127.7690   113.7340 h1         1 I34       0.038700
     23 H2         112.6740   128.5990   112.6260 h1         1 I34       0.038700
     24 H3         114.3060   129.2600   112.9210 h1         1 I34       0.038700
     25 H4         112.7760   130.9450   112.2050 ha         1 I34       0.132000
     26 H5         112.1710   133.5530   109.7070 h1         1 I34       0.044700
     27 H6         113.3730   132.5980   110.5980 h1         1 I34       0.044700
     28 H7         111.7410   131.9370   110.3030 h1         1 I34       0.044700
     29 H8         109.3190   139.1850   112.8630 ha         1 I34       0.149000
     30 H9         107.0650   141.4840   114.8050 hc         1 I34       0.063700
     31 H10        108.6870   142.1400   115.0970 hc         1 I34       0.063700
     32 H11        108.2050   141.6630   113.4590 hc         1 I34       0.063700
     33 H12        111.0990   133.2660   116.2810 ha         1 I34       0.155000
     34 H13        110.9580   135.0820   112.9930 hn         1 I34       0.160000
     35 H14        110.1960   136.8680   113.2060 hn         1 I34       0.323500
@<TRIPOS>BOND
     1     1    17 1   
     2     1    22 1   
     3     1    23 1   
     4     1    24 1   
     5     2     3 ar  
     6     2    13 ar  
     7     2    17 1   
     8     3     4 ar  
     9     3    25 1   
    10     4     6 ar  
    11     4    18 1   
    12     5    18 1   
    13     5    26 1   
    14     5    27 1   
    15     5    28 1   
    16     6    12 ar  
    17     6    14 1   
    18     7    14 1   
    19     7    15 1   
    20     7    19 2   
    21     8     9 1   
    22     8    15 1   
    23     8    16 2   
    24     9    10 2   
    25     9    29 1   
    26    10    11 1   
    27    10    20 1   
    28    11    30 1   
    29    11    31 1   
    30    11    32 1   
    31    12    13 ar  
    32    12    33 1   
    33    13    21 1   
    34    14    34 1   
    35    15    35 1   
    36    16    20 1   
@<TRIPOS>SUBSTRUCTURE
     1 I34         1 TEMP              0 ****  ****    0 ROOT
