@<TRIPOS>MOLECULE
I34
   35    36     1     0     0
SMALL
bcc


@<TRIPOS>ATOM
      1 C01        113.7800   129.1290   114.1750 c3         1 I34       0.126700
      2 C03        112.1620   130.8140   114.1370 ca         1 I34       0.132100
      3 C04        111.9260   131.3340   112.8690 ca         1 I34      -0.214000
      4 C05        111.6220   132.6770   112.6990 ca         1 I34       0.116100
      5 C07        111.5110   132.4840   110.3350 c3         1 I34       0.127700
      6 C08        111.5770   133.5310   113.8160 ca         1 I34       0.045600
      7 C10        110.4640   135.6290   114.3930 c          1 I34       0.799100
      8 C13        109.5720   137.9140   114.5290 cc         1 I34       0.474200
      9 C14        109.5260   139.2480   114.0400 cc         1 I34      -0.443600
     10 C15        108.6630   139.8620   114.8790 cd         1 I34       0.322000
     11 C16        108.1560   141.2500   114.9560 c3         1 I34      -0.139400
     12 C19        111.8450   133.0140   115.0730 ca         1 I34      -0.084000
     13 C20        112.1290   131.6660   115.2310 ca         1 I34      -0.009600
     14 N09        111.3010   134.8870   113.6060 ns         1 I34      -0.488100
     15 N12        110.3420   136.9290   113.9550 ns         1 I34      -0.564400
     16 N18        108.8000   137.7530   115.5700 nd         1 I34      -0.358300
     17 O02        112.4090   129.4910   114.2940 os         1 I34      -0.325900
     18 O06        111.3690   133.2540   111.5140 os         1 I34      -0.330900
     19 O11        109.8980   135.2000   115.3760 o          1 I34      -0.559100
     20 O17        108.2290   138.9840   115.7840 os         1 I34      -0.120100
     21 CL1        112.4430   131.0380   116.8120 cl         1 I34      -0.086400
     22 H1         113.8400   128.0530   114.3240 h1         1 I34       0.038700
     23 H2         114.1730   129.3710   113.1850 h1         1 I34       0.038700
     24 H3         114.3950   129.6240   114.9300 h1         1 I34       0.038700
     25 H4         111.9570   130.6560   112.0260 ha         1 I34       0.150000
     26 H5         111.2950   133.1520   109.5050 h1         1 I34       0.044700
     27 H6         112.5270   132.0980   110.2250 h1         1 I34       0.044700
     28 H7         110.8080   131.6480   110.3080 h1         1 I34       0.044700
     29 H8         110.0550   139.6670   113.2010 ha         1 I34       0.167000
     30 H9         107.0710   141.2820   114.8490 hc         1 I34       0.063700
     31 H10        108.4090   141.7100   115.9120 hc         1 I34       0.063700
     32 H11        108.5950   141.8490   114.1620 hc         1 I34       0.063700
     33 H12        111.8490   133.6620   115.9370 ha         1 I34       0.173000
     34 H13        111.6000   135.2670   112.7200 hn         1 I34       0.326500
     35 H14        110.8760   137.2260   113.1520 hn         1 I34       0.323500
@<TRIPOS>BOND
     1     1    17 1   
     2     1    22 1   
     3     1    23 1   
     4     1    24 1   
     5     2     3 ar  
     6     2    13 ar  
     7     2    17 1   
     8     3     4 ar  
     9     3    25 1   
    10     4     6 ar  
    11     4    18 1   
    12     5    18 1   
    13     5    26 1   
    14     5    27 1   
    15     5    28 1   
    16     6    12 ar  
    17     6    14 1   
    18     7    14 1   
    19     7    15 1   
    20     7    19 2   
    21     8     9 1   
    22     8    15 1   
    23     8    16 2   
    24     9    10 2   
    25     9    29 1   
    26    10    11 1   
    27    10    20 1   
    28    11    30 1   
    29    11    31 1   
    30    11    32 1   
    31    12    13 ar  
    32    12    33 1   
    33    13    21 1   
    34    14    34 1   
    35    15    35 1   
    36    16    20 1   
@<TRIPOS>SUBSTRUCTURE
     1 I34         1 TEMP              0 ****  ****    0 ROOT
