@<TRIPOS>MOLECULE
I35
   67    67     1     0     0
SMALL
No Charge or Current Charge


@<TRIPOS>ATOM
      1 C1           3.1710    15.0320    -4.1610 c6         1 I35       0.216300
      2 C2           3.9880    14.3180    -3.0160 c6         1 I35       0.153300
      3 C3           3.5640    14.8580    -1.5940 c6         1 I35       0.195800
      4 C4           2.0120    14.7060    -1.4110 c6         1 I35       0.159300
      5 C5           1.2410    15.4450    -2.5410 c6         1 I35       0.195800
      6 C6           1.6210    14.8820    -3.9540 c6         1 I35       0.153300
      7 O1           3.5690    14.6300    -5.5030 os         1 I35      -0.608400
      8 O2           3.8990    12.8770    -3.0710 oh         1 I35      -0.780500
      9 O3           4.2590    14.2550    -0.4560 os         1 I35      -0.613900
     10 O4           1.5410    15.1890    -0.1340 oh         1 I35      -0.688000
     11 O5          -0.1830    15.4070    -2.2640 os         1 I35      -0.613900
     12 O6           0.8680    15.5170    -5.0200 oh         1 I35      -0.780500
     13 P1           5.0030    15.0700    -6.1020 p5         1 I35       1.420800
     14 O11          5.4620    16.3610    -5.5070 o          1 I35      -0.852500
     15 O12          4.9880    15.1690    -7.5910 o          1 I35      -0.852500
     16 O13          5.9170    13.8480    -5.5740 os         1 I35      -0.602400
     17 P3           5.7350    13.6130    -0.5030 p5         1 I35       1.304400
     18 O31          6.1230    13.2160     0.8780 o          1 I35      -0.922667
     19 O32          6.7040    14.6170    -1.0150 o          1 I35      -0.922667
     20 O33          5.7110    12.4050    -1.3730 o          1 I35      -0.922667
     21 P5          -1.0920    16.6900    -2.5890 p5         1 I35       1.304400
     22 O51         -2.5160    16.3520    -2.3270 o          1 I35      -0.922667
     23 O52         -0.9080    17.0300    -4.0230 o          1 I35      -0.922667
     24 O53         -0.6760    17.8240    -1.7240 o          1 I35      -0.922667
     25 C7           5.7140    12.4490    -5.8870 c3         1 I35       0.209600
     26 C8           5.6420    12.1540    -7.4230 c3         1 I35       0.143300
     27 C9           6.2510    10.7740    -7.8050 c3         1 I35       0.124600
     28 C10          6.6650     9.4660    -9.7890 c          1 I35       0.592100
     29 C11          6.5110     9.4550   -11.3120 c3         1 I35      -0.148400
     30 C12          5.1910     8.7710   -11.7370 c3         1 I35      -0.068400
     31 C13          4.9870     8.7480   -13.2640 c3         1 I35      -0.087100
     32 C15          1.9370    11.7170    -8.1610 c3         1 I35      -0.117400
     33 C16          1.0800    12.6740    -7.2960 c3         1 I35      -0.095400
     34 C17         -0.3010    12.9670    -7.9130 c3         1 I35      -0.072100
     35 O14          4.2710    12.2520    -7.9140 os         1 I35      -0.417100
     36 O15          6.1960    10.6290    -9.2390 os         1 I35      -0.433100
     37 O16          7.1410     8.5380    -9.1480 o          1 I35      -0.510000
     38 O17          3.4170    10.5080    -6.6630 o          1 I35      -0.463000
     39 H1           3.3820    16.1070    -4.0700 h1         1 I35       0.036700
     40 H2           5.0370    14.6060    -3.1620 h1         1 I35       0.022700
     41 H3           3.7960    15.9330    -1.5740 h1         1 I35       0.015200
     42 H4           1.7680    13.6360    -1.4930 h1         1 I35       0.026700
     43 H5           1.5650    16.4960    -2.5150 h1         1 I35       0.015200
     44 H6           1.3870    13.8070    -3.9520 h1         1 I35       0.022700
     45 H7           4.6130    12.5870    -2.4040 ho         1 I35       0.527000
     46 H8           0.6150    15.4680    -0.3200 ho         1 I35       0.443000
     47 H9           0.1570    16.0970    -4.5760 ho         1 I35       0.527000
     48 H15          4.8120    12.0800    -5.3880 h1         1 I35       0.076200
     49 H16          6.5490    11.8730    -5.4680 h1         1 I35       0.076200
     50 H17          6.2640    12.9040    -7.9280 h1         1 I35       0.080700
     51 H18          5.7170     9.9580    -7.3030 h1         1 I35       0.068200
     52 H19          7.2940    10.7420    -7.4620 h1         1 I35       0.068200
     53 H20          7.3550     8.9160   -11.7570 hc         1 I35       0.064700
     54 H21          6.4760    10.4890   -11.6760 hc         1 I35       0.064700
     55 H22          5.1780     7.7400   -11.3590 hc         1 I35       0.047700
     56 H23          4.3450     9.2920   -11.2710 hc         1 I35       0.047700
     57 H24          4.0420     8.2530   -13.5150 hc         1 I35       0.018033
     58 H25          4.9590     9.7680   -13.6660 hc         1 I35       0.018033
     59 H26          5.8020     8.2030   -13.7560 hc         1 I35       0.018033
     60 H27          2.1170    12.2210    -9.1180 hc         1 I35       0.018700
     61 H28          1.3800    10.7850    -8.3160 hc         1 I35       0.018700
     62 H29          0.9430    12.2440    -6.2960 hc         1 I35       0.122200
     63 H30          1.6190    13.6200    -7.1560 hc         1 I35       0.122200
     64 H31         -0.8700    13.6480    -7.2680 hc         1 I35       0.003700
     65 H32         -0.1940    13.4370    -8.8980 hc         1 I35       0.003700
     66 H33         -0.8790    12.0420    -8.0290 hc         1 I35       0.003700
     67 C14          3.2780    11.4030    -7.4840 c          1 I35       0.590100
@<TRIPOS>BOND
     1     1     2 1   
     2     1     6 1   
     3     1     7 1   
     4     1    39 1   
     5     2     3 1   
     6     2     8 1   
     7     2    40 1   
     8     3     4 1   
     9     3     9 1   
    10     3    41 1   
    11     4     5 1   
    12     4    10 1   
    13     4    42 1   
    14     5     6 1   
    15     5    11 1   
    16     5    43 1   
    17     6    12 1   
    18     6    44 1   
    19     7    13 1   
    20     8    45 1   
    21     9    17 1   
    22    10    46 1   
    23    11    21 1   
    24    12    47 1   
    25    13    14 1   
    26    13    15 1   
    27    13    16 1   
    28    16    25 1   
    29    17    18 1   
    30    17    19 1   
    31    17    20 1   
    32    21    22 1   
    33    21    23 1   
    34    21    24 1   
    35    25    26 1   
    36    25    48 1   
    37    25    49 1   
    38    26    27 1   
    39    26    35 1   
    40    26    50 1   
    41    27    36 1   
    42    27    51 1   
    43    27    52 1   
    44    28    29 1   
    45    28    36 1   
    46    28    37 2   
    47    29    30 1   
    48    29    53 1   
    49    29    54 1   
    50    30    31 1   
    51    30    55 1   
    52    30    56 1   
    53    31    57 1   
    54    31    58 1   
    55    31    59 1   
    56    32    33 1   
    57    32    60 1   
    58    32    61 1   
    59    32    67 1   
    60    33    34 1   
    61    33    62 1   
    62    33    63 1   
    63    34    64 1   
    64    34    65 1   
    65    34    66 1   
    66    35    67 1   
    67    38    67 2   
@<TRIPOS>SUBSTRUCTURE
     1 I35         1 TEMP              0 ****  ****    0 ROOT
