@<TRIPOS>MOLECULE
I35
   67    67     1     0     0
SMALL
bcc


@<TRIPOS>ATOM
      1 C1           2.9920    15.2250    -4.1790 c6         1 I35       0.193100
      2 C2           3.4920    13.9710    -3.4700 c6         1 I35       0.130100
      3 C3           3.4320    14.1610    -1.9450 c6         1 I35       0.172600
      4 C4           2.0210    14.5450    -1.5200 c6         1 I35       0.136100
      5 C5           1.5210    15.7790    -2.2660 c6         1 I35       0.172600
      6 C6           1.5690    15.6040    -3.7840 c6         1 I35       0.130100
      7 O1           3.0450    15.0510    -5.5860 os         1 I35      -0.585200
      8 O2           2.7830    12.8360    -3.8840 oh         1 I35      -0.718300
      9 O3           3.7980    13.0200    -1.2150 os         1 I35      -0.590700
     10 O4           2.0000    14.7900    -0.1290 oh         1 I35      -0.625800
     11 O5           0.2060    16.0330    -1.8300 os         1 I35      -0.590700
     12 O6           1.1810    16.7610    -4.4680 oh         1 I35      -0.718300
     13 P1           4.1760    15.7570    -6.5290 p5         1 I35       1.420800
     14 O11          4.5810    17.0960    -5.9980 o          1 I35      -0.852500
     15 O12          3.6850    15.5960    -7.9350 o          1 I35      -0.852500
     16 O13          5.5070    14.8090    -6.2710 os         1 I35      -0.579200
     17 P3           5.0480    11.9610    -1.6680 p5         1 I35       1.304400
     18 O31          5.1540    11.0750    -0.4420 o          1 I35      -0.922667
     19 O32          6.2600    12.8270    -1.9810 o          1 I35      -0.922667
     20 O33          4.4790    11.2260    -2.9120 o          1 I35      -0.922667
     21 P5          -0.2150    17.6490    -1.4740 p5         1 I35       1.304400
     22 O51         -1.7110    17.5480    -1.2540 o          1 I35      -0.922667
     23 O52          0.1960    18.4010    -2.7620 o          1 I35      -0.922667
     24 O53          0.6250    18.0170    -0.2600 o          1 I35      -0.922667
     25 C7           5.5200    13.4030    -6.3490 c3         1 I35       0.186400
     26 C8           5.3410    12.8320    -7.7590 c3         1 I35       0.120100
     27 C9           6.2770    11.6500    -7.9720 c3         1 I35       0.101400
     28 C10          6.4750     9.8870    -9.5400 c          1 I35       0.641100
     29 C11          6.0070     9.4210   -10.8920 c3         1 I35      -0.148400
     30 C12          6.4630     8.0160   -11.2500 c3         1 I35      -0.068400
     31 C13          5.9620     7.6020   -12.6260 c3         1 I35      -0.087100
     32 C15          1.8940    11.4740    -7.9950 c3         1 I35      -0.117400
     33 C16          1.0450    12.6010    -7.3960 c3         1 I35      -0.095400
     34 C17         -0.4100    12.4890    -7.8210 c3         1 I35      -0.072100
     35 O14          3.9810    12.5280    -8.0880 os         1 I35      -0.393900
     36 O15          5.9520    11.0720    -9.2330 os         1 I35      -0.409900
     37 O16          7.2300     9.2880    -8.8170 o          1 I35      -0.559000
     38 O17          3.7890    10.7810    -6.6940 o          1 I35      -0.512000
     39 H1           3.6470    16.0540    -3.8780 h1         1 I35       0.036700
     40 H2           4.5560    13.8760    -3.7280 h1         1 I35       0.022700
     41 H3           4.1010    15.0050    -1.7010 h1         1 I35       0.015200
     42 H4           1.3540    13.7030    -1.7690 h1         1 I35       0.026700
     43 H5           2.1930    16.6120    -1.9990 h1         1 I35       0.015200
     44 H6           0.8980    14.7670    -4.0440 h1         1 I35       0.022700
     45 H7           3.3720    12.0760    -3.5650 ho         1 I35       0.488000
     46 H8           1.2520    15.3800     0.0340 ho         1 I35       0.404000
     47 H9           0.7860    17.4250    -3.8190 ho         1 I35       0.488000
     48 H15          4.7930    12.9560    -5.6680 h1         1 I35       0.076200
     49 H16          6.5050    13.1000    -5.9820 h1         1 I35       0.076200
     50 H17          5.6010    13.6070    -8.4810 h1         1 I35       0.080700
     51 H18          6.2010    10.9150    -7.1730 h1         1 I35       0.068200
     52 H19          7.3020    12.0300    -7.9850 h1         1 I35       0.068200
     53 H20          6.3650    10.1390   -11.6370 hc         1 I35       0.064700
     54 H21          4.9150     9.4910   -10.9250 hc         1 I35       0.064700
     55 H22          7.5530     7.9630   -11.2240 hc         1 I35       0.047700
     56 H23          6.1010     7.3090   -10.5000 hc         1 I35       0.047700
     57 H24          6.2870     6.5920   -12.8740 hc         1 I35       0.018033
     58 H25          4.8720     7.6220   -12.6730 hc         1 I35       0.018033
     59 H26          6.3380     8.2710   -13.4020 hc         1 I35       0.018033
     60 H27          1.8670    11.5390    -9.0860 hc         1 I35       0.018700
     61 H28          1.4780    10.5070    -7.7100 hc         1 I35       0.018700
     62 H29          1.1190    12.5690    -6.3060 hc         1 I35       0.122200
     63 H30          1.4470    13.5670    -7.7030 hc         1 I35       0.122200
     64 H31         -1.0080    13.2910    -7.3880 hc         1 I35       0.003700
     65 H32         -0.5100    12.5510    -8.9060 hc         1 I35       0.003700
     66 H33         -0.8470    11.5410    -7.5030 hc         1 I35       0.003700
     67 C14          3.3200    11.5290    -7.5150 c          1 I35       0.639100
@<TRIPOS>BOND
     1     1     2 1   
     2     1     6 1   
     3     1     7 1   
     4     1    39 1   
     5     2     3 1   
     6     2     8 1   
     7     2    40 1   
     8     3     4 1   
     9     3     9 1   
    10     3    41 1   
    11     4     5 1   
    12     4    10 1   
    13     4    42 1   
    14     5     6 1   
    15     5    11 1   
    16     5    43 1   
    17     6    12 1   
    18     6    44 1   
    19     7    13 1   
    20     8    45 1   
    21     9    17 1   
    22    10    46 1   
    23    11    21 1   
    24    12    47 1   
    25    13    14 1   
    26    13    15 1   
    27    13    16 1   
    28    16    25 1   
    29    17    18 1   
    30    17    19 1   
    31    17    20 1   
    32    21    22 1   
    33    21    23 1   
    34    21    24 1   
    35    25    26 1   
    36    25    48 1   
    37    25    49 1   
    38    26    27 1   
    39    26    35 1   
    40    26    50 1   
    41    27    36 1   
    42    27    51 1   
    43    27    52 1   
    44    28    29 1   
    45    28    36 1   
    46    28    37 2   
    47    29    30 1   
    48    29    53 1   
    49    29    54 1   
    50    30    31 1   
    51    30    55 1   
    52    30    56 1   
    53    31    57 1   
    54    31    58 1   
    55    31    59 1   
    56    32    33 1   
    57    32    60 1   
    58    32    61 1   
    59    32    67 1   
    60    33    34 1   
    61    33    62 1   
    62    33    63 1   
    63    34    64 1   
    64    34    65 1   
    65    34    66 1   
    66    35    67 1   
    67    38    67 2   
@<TRIPOS>SUBSTRUCTURE
     1 I35         1 TEMP              0 ****  ****    0 ROOT
