@<TRIPOS>MOLECULE
I37
   42    43     1     0     0
SMALL
abcg2


@<TRIPOS>ATOM
      1 N1           1.7970    -4.3340    -1.6030 n1         1 I37      -0.438000
      2 C1           2.0880    -3.7990    -0.6280 c1         1 I37       0.273900
      3 C2           2.4560    -3.1330     0.6270 c3         1 I37       0.176100
      4 N3           2.0270    -1.7650     0.6650 ns         1 I37      -0.500900
      5 C4           2.5950    -0.8410    -0.1360 c          1 I37       0.610100
      6 O5           3.5420    -1.1130    -0.8510 o          1 I37      -0.574100
      7 C6           2.0460     0.5850     0.0060 c6         1 I37       0.061400
      8 C7           2.6390     1.1710     1.3050 c6         1 I37      -0.084400
      9 C8           2.3000     2.6470     1.5010 c6         1 I37      -0.075400
     10 C9           2.6980     3.4810     0.2900 c6         1 I37      -0.078400
     11 C10          2.0870     2.9160    -0.9860 c6         1 I37      -0.075400
     12 C11          2.4750     1.4560    -1.1830 c6         1 I37      -0.084400
     13 N12          0.5990     0.5380     0.1560 ns         1 I37      -0.517900
     14 C13         -0.2100    -0.0600    -0.7480 c          1 I37       0.609700
     15 O14          0.2420    -0.6700    -1.7070 o          1 I37      -0.584100
     16 C15         -1.6730     0.0430    -0.5120 ca         1 I37      -0.187600
     17 C16         -2.2300     0.3780     0.7250 ca         1 I37      -0.083000
     18 C17         -3.5920     0.4400     0.8650 ca         1 I37       0.078000
     19 C18         -4.4850     0.1810    -0.1820 ca         1 I37       0.303000
     20 C19         -3.9090    -0.1620    -1.4110 ca         1 I37      -0.184000
     21 C20         -2.5390    -0.2360    -1.5670 ca         1 I37      -0.016000
     22 N21         -5.8320     0.3070    -0.0140 nv         1 I37      -1.076000
     23 F22         -4.1160     0.7530     2.0670 f          1 I37      -0.187000
     24 H1           1.9880    -3.6740     1.4480 h1         1 I37       0.075200
     25 H2           3.5350    -3.2210     0.7550 h1         1 I37       0.075200
     26 H3           1.1850    -1.5510     1.1740 hn         1 I37       0.325500
     27 H4           2.3040     0.5890     2.1670 hc         1 I37       0.064450
     28 H5           3.7260     1.0600     1.2520 hc         1 I37       0.064450
     29 H6           1.2310     2.7790     1.6990 hc         1 I37       0.040950
     30 H7           2.8100     3.0050     2.3970 hc         1 I37       0.040950
     31 H8           2.3960     4.5210     0.4340 hc         1 I37       0.044200
     32 H9           3.7890     3.4810     0.1960 hc         1 I37       0.044200
     33 H10          0.9970     3.0190    -0.9550 hc         1 I37       0.040950
     34 H11          2.4220     3.4920    -1.8510 hc         1 I37       0.040950
     35 H12          3.5610     1.3900    -1.2850 hc         1 I37       0.064450
     36 H13          2.0510     1.0660    -2.1080 hc         1 I37       0.064450
     37 H14          0.1910     1.1330     0.8580 hn         1 I37       0.319500
     38 H15         -1.6240     0.5700     1.6030 ha         1 I37       0.122000
     39 H16         -4.5580    -0.3760    -2.2520 ha         1 I37       0.123000
     40 H17         -2.1360    -0.5130    -2.5320 ha         1 I37       0.143000
     41 H18         -6.2040     0.2250     0.9170 hn         1 I37       0.470500
     42 H19         -6.4150    -0.1220    -0.7140 hn         1 I37       0.470500
@<TRIPOS>BOND
     1     1     2 3   
     2     2     3 1   
     3     3     4 1   
     4     3    24 1   
     5     3    25 1   
     6     4     5 1   
     7     4    26 1   
     8     5     6 2   
     9     5     7 1   
    10     7     8 1   
    11     7    12 1   
    12     7    13 1   
    13     8     9 1   
    14     8    27 1   
    15     8    28 1   
    16     9    10 1   
    17     9    29 1   
    18     9    30 1   
    19    10    11 1   
    20    10    31 1   
    21    10    32 1   
    22    11    12 1   
    23    11    33 1   
    24    11    34 1   
    25    12    35 1   
    26    12    36 1   
    27    13    14 1   
    28    13    37 1   
    29    14    15 2   
    30    14    16 1   
    31    16    17 ar  
    32    16    21 ar  
    33    17    18 ar  
    34    17    38 1   
    35    18    19 ar  
    36    18    23 1   
    37    19    20 ar  
    38    19    22 1   
    39    20    21 ar  
    40    20    39 1   
    41    21    40 1   
    42    22    41 1   
    43    22    42 1   
@<TRIPOS>SUBSTRUCTURE
     1 I37         1 TEMP              0 ****  ****    0 ROOT
