@<TRIPOS>MOLECULE
I37
   42    43     1     0     0
SMALL
No Charge or Current Charge


@<TRIPOS>ATOM
      1 N1           1.7980    -4.4520    -1.9380 n1         1 I37      -0.438000
      2 C1           2.0760    -3.9480    -0.9240 c1         1 I37       0.273900
      3 C2           2.4300    -3.3450     0.3730 c3         1 I37       0.176100
      4 N3           2.0450    -1.9270     0.4480 ns         1 I37      -0.500900
      5 C4           2.8070    -0.8790    -0.0260 c          1 I37       0.610100
      6 O5           3.8780    -1.0860    -0.5840 o          1 I37      -0.574100
      7 C6           2.1640     0.5590     0.0710 c6         1 I37       0.061400
      8 C7           2.6160     1.2050     1.4190 c6         1 I37      -0.084400
      9 C8           2.1330     2.6730     1.5850 c6         1 I37      -0.075400
     10 C9           2.5620     3.5480     0.3830 c6         1 I37      -0.078400
     11 C10          2.0780     2.9410    -0.9560 c6         1 I37      -0.075400
     12 C11          2.5840     1.4830    -1.1210 c6         1 I37      -0.084400
     13 N12          0.6720     0.4970     0.1230 ns         1 I37      -0.517900
     14 C13         -0.1690    -0.0880    -0.8040 c          1 I37       0.609700
     15 O14          0.2650    -0.6810    -1.7800 o          1 I37      -0.584100
     16 C15         -1.6530     0.0420    -0.5400 ca         1 I37      -0.187600
     17 C16         -2.1680     0.7430     0.5800 ca         1 I37      -0.083000
     18 C17         -3.5550     0.8390     0.7840 ca         1 I37       0.078000
     19 C18         -4.4590     0.2380    -0.1230 ca         1 I37       0.303000
     20 C19         -3.9540    -0.4550    -1.2300 ca         1 I37      -0.184000
     21 C20         -2.5670    -0.5530    -1.4400 ca         1 I37      -0.016000
     22 N21         -5.8240     0.3160     0.0530 nv         1 I37      -1.076000
     23 F22         -4.0130     1.5150     1.8670 f          1 I37      -0.187000
     24 H1           1.9180    -3.8980     1.1700 h1         1 I37       0.075200
     25 H2           3.5110    -3.4450     0.5310 h1         1 I37       0.075200
     26 H3           1.1490    -1.6850     0.8540 hn         1 I37       0.325500
     27 H4           2.2610     0.6010     2.2660 hc         1 I37       0.064450
     28 H5           3.7140     1.1860     1.4770 hc         1 I37       0.064450
     29 H6           1.0410     2.7080     1.6970 hc         1 I37       0.040950
     30 H7           2.5470     3.0940     2.5120 hc         1 I37       0.040950
     31 H8           2.1600     4.5640     0.4980 hc         1 I37       0.044200
     32 H9           3.6560     3.6470     0.3690 hc         1 I37       0.044200
     33 H10          0.9810     2.9710    -1.0060 hc         1 I37       0.040950
     34 H11          2.4400     3.5540    -1.7920 hc         1 I37       0.040950
     35 H12          3.6800     1.5020    -1.2000 hc         1 I37       0.064450
     36 H13          2.2250     1.0710    -2.0740 hc         1 I37       0.064450
     37 H14          0.2160     0.9750     0.8870 hn         1 I37       0.319500
     38 H15         -1.5130     1.2220     1.3020 ha         1 I37       0.122000
     39 H16         -4.6350    -0.9210    -1.9370 ha         1 I37       0.123000
     40 H17         -2.2050    -1.0980    -2.3100 ha         1 I37       0.143000
     41 H18         -6.1920     0.6910     0.9260 hn         1 I37       0.470500
     42 H19         -6.4450    -0.2670    -0.5060 hn         1 I37       0.470500
@<TRIPOS>BOND
     1     1     2 3   
     2     2     3 1   
     3     3     4 1   
     4     3    24 1   
     5     3    25 1   
     6     4     5 1   
     7     4    26 1   
     8     5     6 2   
     9     5     7 1   
    10     7     8 1   
    11     7    12 1   
    12     7    13 1   
    13     8     9 1   
    14     8    27 1   
    15     8    28 1   
    16     9    10 1   
    17     9    29 1   
    18     9    30 1   
    19    10    11 1   
    20    10    31 1   
    21    10    32 1   
    22    11    12 1   
    23    11    33 1   
    24    11    34 1   
    25    12    35 1   
    26    12    36 1   
    27    13    14 1   
    28    13    37 1   
    29    14    15 2   
    30    14    16 1   
    31    16    17 ar  
    32    16    21 ar  
    33    17    18 ar  
    34    17    38 1   
    35    18    19 ar  
    36    18    23 1   
    37    19    20 ar  
    38    19    22 1   
    39    20    21 ar  
    40    20    39 1   
    41    21    40 1   
    42    22    41 1   
    43    22    42 1   
@<TRIPOS>SUBSTRUCTURE
     1 I37         1 TEMP              0 ****  ****    0 ROOT
