@<TRIPOS>MOLECULE
I38
   21    20     1     0     0
SMALL
abcg2


@<TRIPOS>ATOM
      1 S            4.4130    -0.6550     0.1940 sh         1 I38      -0.497800
      2 C1           2.9580     0.2710    -0.4000 c3         1 I38       0.113600
      3 C2           1.7600    -0.1230     0.4480 c3         1 I38      -0.160400
      4 C3           0.5170     0.6600     0.0650 c          1 I38       0.587100
      5 O3           0.5790     1.8370    -0.2770 o          1 I38      -0.663100
      6 N4          -0.6260    -0.0220     0.1580 ns         1 I38      -0.459900
      7 C5          -1.9380     0.5180    -0.1190 c3         1 I38      -0.043300
      8 C51         -2.4170     1.4540     0.9900 c3         1 I38      -0.079100
      9 C6          -2.9390    -0.6480    -0.3080 c          1 I38       0.715000
     10 O62         -2.5250    -1.8010    -0.0760 o          1 I38      -0.725500
     11 O61         -4.0840    -0.3170    -0.6630 o          1 I38      -0.725500
     12 HS           5.3030    -0.1660    -0.6750 hs         1 I38       0.203800
     13 H11          3.1500     1.3390    -0.3180 h1         1 I38       0.068700
     14 H12          2.7820     0.0300    -1.4480 h1         1 I38       0.068700
     15 H21          1.5800    -1.1980     0.3730 hc         1 I38       0.064200
     16 H22          1.9680     0.0860     1.5020 hc         1 I38       0.064200
     17 HN4         -0.6150    -1.0110     0.3660 hn         1 I38       0.340500
     18 H5          -1.8990     1.0840    -1.0560 h1         1 I38       0.051700
     19 H511        -3.3960     1.8640     0.7440 hc         1 I38       0.025033
     20 H512        -2.4990     0.9210     1.9400 hc         1 I38       0.025033
     21 H513        -1.7280     2.2860     1.1260 hc         1 I38       0.025033
@<TRIPOS>BOND
     1     1     2 1   
     2     1    12 1   
     3     2     3 1   
     4     2    13 1   
     5     2    14 1   
     6     3     4 1   
     7     3    15 1   
     8     3    16 1   
     9     4     5 2   
    10     4     6 1   
    11     6     7 1   
    12     6    17 1   
    13     7     8 1   
    14     7     9 1   
    15     7    18 1   
    16     8    19 1   
    17     8    20 1   
    18     8    21 1   
    19     9    10 1   
    20     9    11 1   
@<TRIPOS>SUBSTRUCTURE
     1 I38         1 TEMP              0 ****  ****    0 ROOT
