@<TRIPOS>MOLECULE
I38
   21    20     1     0     0
SMALL
No Charge or Current Charge


@<TRIPOS>ATOM
      1 S            4.4110    -0.7850    -0.0150 sh         1 I38      -0.497800
      2 C1           2.8370     0.0960    -0.4380 c3         1 I38       0.113600
      3 C2           1.8660     0.1830     0.7520 c3         1 I38      -0.160400
      4 C3           0.5850     0.9130     0.3500 c          1 I38       0.587100
      5 O3           0.5500     2.1230     0.1720 o          1 I38      -0.663100
      6 N4          -0.5310     0.1130     0.2300 ns         1 I38      -0.459900
      7 C5          -1.8960     0.5820    -0.1090 c3         1 I38      -0.043300
      8 C51         -2.5850     1.2440     1.1050 c3         1 I38      -0.079100
      9 C6          -2.7550    -0.5880    -0.6850 c          1 I38       0.715000
     10 O62         -2.6350    -1.7000    -0.1860 o          1 I38      -0.725500
     11 O61         -3.4260    -0.3720    -1.6840 o          1 I38      -0.725500
     12 HS           4.9800    -0.6680    -1.2410 hs         1 I38       0.203800
     13 H11          3.0860     1.1080    -0.7850 h1         1 I38       0.068700
     14 H12          2.3530    -0.4360    -1.2690 h1         1 I38       0.068700
     15 H21          1.6370    -0.8340     1.0910 hc         1 I38       0.064200
     16 H22          2.3560     0.7430     1.5560 hc         1 I38       0.064200
     17 HN4         -0.4020    -0.8790     0.4000 hn         1 I38       0.340500
     18 H5          -1.8060     1.3330    -0.9040 h1         1 I38       0.051700
     19 H511        -3.5840     1.6010     0.8300 hc         1 I38       0.025033
     20 H512        -2.6900     0.5290     1.9300 hc         1 I38       0.025033
     21 H513        -2.0050     2.1020     1.4650 hc         1 I38       0.025033
@<TRIPOS>BOND
     1     1     2 1   
     2     1    12 1   
     3     2     3 1   
     4     2    13 1   
     5     2    14 1   
     6     3     4 1   
     7     3    15 1   
     8     3    16 1   
     9     4     5 2   
    10     4     6 1   
    11     6     7 1   
    12     6    17 1   
    13     7     8 1   
    14     7     9 1   
    15     7    18 1   
    16     8    19 1   
    17     8    20 1   
    18     8    21 1   
    19     9    10 1   
    20     9    11 1   
@<TRIPOS>SUBSTRUCTURE
     1 I38         1 TEMP              0 ****  ****    0 ROOT
