@<TRIPOS>MOLECULE
I39
   39    41     1     0     0
SMALL
No Charge or Current Charge


@<TRIPOS>ATOM
      1 O10          2.2450    -2.7720     0.3410 o          1 I39      -0.497100
      2 C9           1.7120    -1.7170     0.0270 c          1 I39       0.615300
      3 C4           2.4920    -0.4290    -0.0450 ca         1 I39      -0.248600
      4 C3           3.5760    -0.1830     0.8240 ca         1 I39       0.252000
      5 F8           3.9230    -1.0780     1.7750 f          1 I39      -0.148000
      6 C2           4.2980     1.0160     0.7430 ca         1 I39      -0.217000
      7 C5           2.1510     0.5490    -1.0090 ca         1 I39      -0.032000
      8 C6           2.8780     1.7490    -1.0860 ca         1 I39      -0.184000
      9 C1           3.9480     1.9780    -0.2100 ca         1 I39       0.226000
     10 F7           4.6440     3.1330    -0.2870 f          1 I39      -0.162000
     11 C11          0.2640    -1.7030    -0.3620 ca         1 I39      -0.301600
     12 C16         -0.1960    -2.6850    -1.2580 ca         1 I39       0.010000
     13 C15         -1.5430    -2.6970    -1.6390 ca         1 I39      -0.288000
     14 N14         -2.4340    -1.7550    -1.1540 na         1 I39       0.528300
     15 O23         -3.6040    -1.7790    -1.5540 o          1 I39      -0.482000
     16 C13         -1.9980    -0.7610    -0.2320 cp         1 I39      -0.215300
     17 C12         -0.6410    -0.7640     0.1670 ca         1 I39       0.428000
     18 N24         -0.2340     0.1410     1.1100 nv         1 I39      -0.779000
     19 C17         -2.9620     0.2520     0.3050 cp         1 I39      -0.035000
     20 C22         -2.9400     1.6060    -0.1310 ca         1 I39      -0.036300
     21 C25         -1.9510     2.0890    -1.1880 c3         1 I39      -0.051800
     22 C21         -3.8560     2.5290     0.4120 ca         1 I39      -0.118000
     23 C20         -4.7970     2.1240     1.3730 ca         1 I39      -0.093000
     24 C19         -4.8320     0.7880     1.8000 ca         1 I39      -0.121000
     25 C18         -3.9220    -0.1390     1.2680 ca         1 I39      -0.082000
     26 H2           5.1250     1.2000     1.4220 ha         1 I39       0.157000
     27 H5           1.3300     0.3830    -1.7050 ha         1 I39       0.132000
     28 H6           2.6160     2.5010    -1.8260 ha         1 I39       0.144000
     29 H16          0.4870    -3.4320    -1.6630 ha         1 I39       0.146000
     30 H15         -1.9370    -3.4380    -2.3330 h4         1 I39       0.173000
     31 HN24         0.7530     0.2850     1.2830 hn         1 I39       0.337000
     32 HN2A        -0.8900     0.8470     1.4220 hn         1 I39       0.337000
     33 H25         -1.8380     1.3560    -1.9950 hc         1 I39       0.046700
     34 H25A        -2.2790     3.0280    -1.6490 hc         1 I39       0.046700
     35 H25B        -0.9610     2.2640    -0.7510 hc         1 I39       0.046700
     36 H21         -3.8430     3.5670     0.0870 ha         1 I39       0.114000
     37 H20         -5.5000     2.8450     1.7850 ha         1 I39       0.114000
     38 H19         -5.5620     0.4710     2.5420 ha         1 I39       0.117000
     39 H18         -3.9530    -1.1730     1.6060 ha         1 I39       0.120000
@<TRIPOS>BOND
     1     1     2 2   
     2     2     3 1   
     3     2    11 1   
     4     3     4 ar  
     5     3     7 ar  
     6     4     5 1   
     7     4     6 ar  
     8     6     9 ar  
     9     6    26 1   
    10     7     8 ar  
    11     7    27 1   
    12     8     9 ar  
    13     8    28 1   
    14     9    10 1   
    15    11    12 ar  
    16    11    17 ar  
    17    12    13 ar  
    18    12    29 1   
    19    13    14 1   
    20    13    30 1   
    21    14    15 1   
    22    14    16 2   
    23    16    17 ar  
    24    16    19 1   
    25    17    18 1   
    26    18    31 1   
    27    18    32 1   
    28    19    20 ar  
    29    19    25 ar  
    30    20    21 1   
    31    20    22 ar  
    32    21    33 1   
    33    21    34 1   
    34    21    35 1   
    35    22    23 ar  
    36    22    36 1   
    37    23    24 ar  
    38    23    37 1   
    39    24    25 ar  
    40    24    38 1   
    41    25    39 1   
@<TRIPOS>SUBSTRUCTURE
     1 I39         1 TEMP              0 ****  ****    0 ROOT
