@<TRIPOS>MOLECULE
I39
   39    41     1     0     0
SMALL
bcc


@<TRIPOS>ATOM
      1 O10          2.2910    -2.7670    -0.1230 o          1 I39      -0.497100
      2 C9           1.7540    -1.6790    -0.1440 c          1 I39       0.615300
      3 C4           2.5560    -0.4390     0.0440 ca         1 I39      -0.248600
      4 C3           3.6160    -0.3770     0.9430 ca         1 I39       0.216900
      5 F8           3.8600    -1.4110     1.7470 f          1 I39      -0.112900
      6 C2           4.4180     0.7390     1.0700 ca         1 I39      -0.235000
      7 C5           2.3260     0.6800    -0.7590 ca         1 I39      -0.050000
      8 C6           3.1190     1.8090    -0.6780 ca         1 I39      -0.202000
      9 C1           4.1510     1.8140     0.2440 ca         1 I39       0.190900
     10 F7           4.9200     2.8980     0.3490 f          1 I39      -0.126900
     11 C11          0.3110    -1.5570    -0.4510 ca         1 I39      -0.301600
     12 C16         -0.2240    -2.4760    -1.3520 ca         1 I39      -0.008000
     13 C15         -1.5370    -2.4520    -1.7210 ca         1 I39      -0.255300
     14 N14         -2.3780    -1.5260    -1.1830 na         1 I39       0.287600
     15 O23         -3.5890    -1.5100    -1.5370 o          1 I39      -0.292000
     16 C13         -1.9250    -0.6360    -0.2720 cp         1 I39      -0.215300
     17 C12         -0.5740    -0.6220     0.1300 ca         1 I39       0.289600
     18 N24         -0.2110     0.2490     1.0950 nv         1 I39      -0.850200
     19 C17         -2.9070     0.3190     0.2850 cp         1 I39      -0.035000
     20 C22         -3.2910     1.4500    -0.4450 ca         1 I39      -0.036300
     21 C25         -2.7620     1.6960    -1.8260 c3         1 I39      -0.051800
     22 C21         -4.1930     2.3350     0.1390 ca         1 I39      -0.136000
     23 C20         -4.7030     2.1120     1.4110 ca         1 I39      -0.111000
     24 C19         -4.3110     0.9920     2.1300 ca         1 I39      -0.139000
     25 C18         -3.4110     0.1010     1.5640 ca         1 I39      -0.100000
     26 H2           5.2230     0.7670     1.7910 ha         1 I39       0.175000
     27 H5           1.5190     0.6570    -1.4790 ha         1 I39       0.150000
     28 H6           2.9410     2.6650    -1.3140 ha         1 I39       0.162000
     29 H16          0.4160    -3.2190    -1.8060 ha         1 I39       0.164000
     30 H15         -1.9780    -3.1270    -2.4360 h4         1 I39       0.191000
     31 HN24         0.7510     0.3820     1.3440 hn         1 I39       0.441800
     32 HN2A        -0.8370     0.9880     1.3640 hn         1 I39       0.441800
     33 H25         -3.1850     0.9810    -2.5330 hc         1 I39       0.046700
     34 H25A        -3.0140     2.6970    -2.1740 hc         1 I39       0.046700
     35 H25B        -1.6760     1.5930    -1.8730 hc         1 I39       0.046700
     36 H21         -4.5040     3.2140    -0.4120 ha         1 I39       0.132000
     37 H20         -5.4020     2.8170     1.8410 ha         1 I39       0.132000
     38 H19         -4.7000     0.8130     3.1230 ha         1 I39       0.135000
     39 H18         -3.0950    -0.7740     2.1190 ha         1 I39       0.138000
@<TRIPOS>BOND
     1     1     2 2   
     2     2     3 1   
     3     2    11 1   
     4     3     4 ar  
     5     3     7 ar  
     6     4     5 1   
     7     4     6 ar  
     8     6     9 ar  
     9     6    26 1   
    10     7     8 ar  
    11     7    27 1   
    12     8     9 ar  
    13     8    28 1   
    14     9    10 1   
    15    11    12 ar  
    16    11    17 ar  
    17    12    13 ar  
    18    12    29 1   
    19    13    14 1   
    20    13    30 1   
    21    14    15 1   
    22    14    16 2   
    23    16    17 ar  
    24    16    19 1   
    25    17    18 1   
    26    18    31 1   
    27    18    32 1   
    28    19    20 ar  
    29    19    25 ar  
    30    20    21 1   
    31    20    22 ar  
    32    21    33 1   
    33    21    34 1   
    34    21    35 1   
    35    22    23 ar  
    36    22    36 1   
    37    23    24 ar  
    38    23    37 1   
    39    24    25 ar  
    40    24    38 1   
    41    25    39 1   
@<TRIPOS>SUBSTRUCTURE
     1 I39         1 TEMP              0 ****  ****    0 ROOT
