@<TRIPOS>MOLECULE
I3A
   18    19     1     0     0
SMALL
abcg2


@<TRIPOS>ATOM
      1 O           -5.2570     1.5590     5.2370 o          1 I3A      -0.550100
      2 C3          -4.2760     1.6540     4.5230 c          1 I3A       0.614100
      3 C1          -3.8760     0.6860     3.5340 cc         1 I3A      -0.276400
      4 C2          -4.5360    -0.4920     3.2440 cd         1 I3A      -0.073100
      5 N           -3.8840    -1.1460     2.2690 na         1 I3A      -0.210700
      6 C8          -2.7760    -0.4320     1.8790 ca         1 I3A      -0.066200
      7 C9          -2.7350     0.7400     2.6580 ca         1 I3A      -0.057800
      8 C4          -1.6940     1.6510     2.4560 ca         1 I3A      -0.071000
      9 C5          -0.7410     1.3680     1.4970 ca         1 I3A      -0.125000
     10 C6          -0.8020     0.1930     0.7330 ca         1 I3A      -0.098000
     11 C7          -1.8200    -0.7250     0.9110 ca         1 I3A      -0.115000
     12 H3          -3.6110     2.5320     4.6040 h4         1 I3A      -0.013800
     13 H2          -5.4330    -0.9000     3.6810 h4         1 I3A       0.229000
     14 HN          -4.1700    -2.0330     1.8850 hn         1 I3A       0.353000
     15 H4          -1.6310     2.5640     3.0350 ha         1 I3A       0.117000
     16 H5           0.0700     2.0660     1.3310 ha         1 I3A       0.114000
     17 H6          -0.0380     0.0020    -0.0100 ha         1 I3A       0.113000
     18 H7          -1.8710    -1.6310     0.3220 ha         1 I3A       0.116000
@<TRIPOS>BOND
     1     1     2 2   
     2     2     3 1   
     3     2    12 1   
     4     3     4 2   
     5     3     7 1   
     6     4     5 1   
     7     4    13 1   
     8     5     6 1   
     9     5    14 1   
    10     6     7 ar  
    11     6    11 ar  
    12     7     8 ar  
    13     8     9 ar  
    14     8    15 1   
    15     9    10 ar  
    16     9    16 1   
    17    10    11 ar  
    18    10    17 1   
    19    11    18 1   
@<TRIPOS>SUBSTRUCTURE
     1 I3A         1 TEMP              0 ****  ****    0 ROOT
