@<TRIPOS>MOLECULE
I3A
   18    19     1     0     0
SMALL
No Charge or Current Charge


@<TRIPOS>ATOM
      1 O           -5.2320     1.6010     5.2500 o          1 I3A      -0.550100
      2 C3          -4.2460     1.6910     4.5250 c          1 I3A       0.614100
      3 C1          -3.8670     0.6760     3.5180 cc         1 I3A      -0.276400
      4 C2          -4.5650    -0.5010     3.2610 cd         1 I3A      -0.073100
      5 N           -3.8950    -1.2110     2.2330 na         1 I3A      -0.210700
      6 C8          -2.7940    -0.4420     1.8860 ca         1 I3A      -0.066200
      7 C9          -2.7390     0.7010     2.6330 ca         1 I3A      -0.057800
      8 C4          -1.7170     1.6490     2.4720 ca         1 I3A      -0.071000
      9 C5          -0.7270     1.3890     1.5010 ca         1 I3A      -0.125000
     10 C6          -0.7800     0.2070     0.7240 ca         1 I3A      -0.098000
     11 C7          -1.8240    -0.7250     0.9140 ca         1 I3A      -0.115000
     12 H3          -3.5690     2.5710     4.5920 h4         1 I3A      -0.013800
     13 H2          -5.4730    -0.8800     3.7260 h4         1 I3A       0.229000
     14 HN          -4.1680    -2.1040     1.8330 hn         1 I3A       0.353000
     15 H4          -1.6840     2.5540     3.0730 ha         1 I3A       0.117000
     16 H5           0.0810     2.1020     1.3480 ha         1 I3A       0.114000
     17 H6          -0.0130     0.0150    -0.0220 ha         1 I3A       0.113000
     18 H7          -1.8710    -1.6360     0.3210 ha         1 I3A       0.116000
@<TRIPOS>BOND
     1     1     2 2   
     2     2     3 1   
     3     2    12 1   
     4     3     4 2   
     5     3     7 1   
     6     4     5 1   
     7     4    13 1   
     8     5     6 1   
     9     5    14 1   
    10     6     7 ar  
    11     6    11 ar  
    12     7     8 ar  
    13     8     9 ar  
    14     8    15 1   
    15     9    10 ar  
    16     9    16 1   
    17    10    11 ar  
    18    10    17 1   
    19    11    18 1   
@<TRIPOS>SUBSTRUCTURE
     1 I3A         1 TEMP              0 ****  ****    0 ROOT
