@<TRIPOS>MOLECULE
I3B
   41    41     1     0     0
SMALL
No Charge or Current Charge


@<TRIPOS>ATOM
      1 C02         69.4540   -25.5000    47.3050 ca         1 I3B      -0.039300
      2 C03         68.1460   -25.0020    47.0610 ca         1 I3B      -0.033300
      3 C05         67.5640   -24.1330    48.0040 ca         1 I3B       0.274900
      4 C07         69.4160   -24.2210    49.3910 ca         1 I3B       0.197300
      5 C09         70.0920   -25.1070    48.5090 ca         1 I3B       0.090100
      6 C27         72.4890   -22.1840    42.0940 c3         1 I3B      -0.198400
      7 C29         71.8200   -24.0480    43.7960 c3         1 I3B      -0.067400
      8 O13         66.7330   -26.6600    46.0460 os         1 I3B      -0.577400
      9 O32         72.7930   -23.2420    39.9860 o          1 I3B      -0.749500
     10 C01         70.1580   -26.4480    46.3220 c3         1 I3B       0.192100
     11 C04         67.3260   -25.3770    45.8310 c3         1 I3B       0.272900
     12 C08         70.0540   -23.7570    50.6970 c3         1 I3B      -0.123400
     13 C26         73.2440   -23.1080    41.1130 c          1 I3B       0.710000
     14 C28         71.3470   -22.9370    42.8280 c3         1 I3B      -0.049400
     15 C30         70.6520   -24.7080    44.5590 c3         1 I3B       0.132800
     16 N06         68.1770   -23.7390    49.1430 nb         1 I3B      -0.691000
     17 N33         71.1640   -25.7500    45.4740 n7         1 I3B      -0.872400
     18 O10         71.3420   -25.5860    48.8260 oh         1 I3B      -0.522100
     19 O12         65.2540   -28.5770    45.3670 o          1 I3B      -0.916500
     20 O14         66.4500   -27.3700    43.6330 o          1 I3B      -0.916500
     21 O15         64.5680   -26.3240    44.7820 o          1 I3B      -0.916500
     22 O31         74.2510   -23.6760    41.5070 o          1 I3B      -0.749500
     23 P11         65.7320   -27.2380    44.9290 p5         1 I3B       1.255900
     24 H1          66.5630   -23.7350    47.8440 h4         1 I3B       0.009100
     25 H2          73.1610   -21.8070    42.8750 hc         1 I3B      -0.000300
     26 H3          71.9790   -21.3870    41.5380 hc         1 I3B      -0.000300
     27 H4          72.3590   -24.8180    43.2320 hc         1 I3B       0.029700
     28 H5          72.5260   -23.6190    44.5180 hc         1 I3B       0.029700
     29 H7          69.4170   -26.9650    45.6970 h1         1 I3B       0.075700
     30 H8          70.6510   -27.2380    46.9060 h1         1 I3B       0.075700
     31 H9          67.9660   -25.3870    44.9410 h1         1 I3B       0.014200
     32 H10         66.5520   -24.6160    45.6690 h1         1 I3B       0.014200
     33 H11         69.4050   -23.0710    51.2550 hc         1 I3B       0.019700
     34 H12         70.2670   -24.6090    51.3540 hc         1 I3B       0.019700
     35 H13         70.9980   -23.2320    50.5080 hc         1 I3B       0.019700
     36 H14         70.7630   -22.2040    43.3980 hc         1 I3B       0.027200
     37 H15         70.6650   -23.3700    42.0860 hc         1 I3B       0.027200
     38 H16         70.1140   -23.9290    45.1180 h1         1 I3B       0.055700
     39 H17         69.9530   -25.1410    43.8300 h1         1 I3B       0.055700
     40 H18         71.6520   -26.4570    44.9100 hn         1 I3B       0.397000
     41 H20         71.6230   -25.1870    49.6750 ho         1 I3B       0.428000
@<TRIPOS>BOND
     1     1     2 ar  
     2     1     5 ar  
     3     1    10 1   
     4     2     3 ar  
     5     2    11 1   
     6     3    16 ar  
     7     3    24 1   
     8     4     5 ar  
     9     4    12 1   
    10     4    16 ar  
    11     5    18 1   
    12     6    13 1   
    13     6    14 1   
    14     6    25 1   
    15     6    26 1   
    16     7    14 1   
    17     7    15 1   
    18     7    27 1   
    19     7    28 1   
    20     8    11 1   
    21     8    23 1   
    22     9    13 1   
    23    10    17 1   
    24    10    29 1   
    25    10    30 1   
    26    11    31 1   
    27    11    32 1   
    28    12    33 1   
    29    12    34 1   
    30    12    35 1   
    31    13    22 1   
    32    14    36 1   
    33    14    37 1   
    34    15    17 1   
    35    15    38 1   
    36    15    39 1   
    37    17    40 1   
    38    18    41 1   
    39    19    23 1   
    40    20    23 1   
    41    21    23 1   
@<TRIPOS>SUBSTRUCTURE
     1 I3B         1 TEMP              0 ****  ****    0 ROOT
