@<TRIPOS>MOLECULE
I3B
   41    41     1     0     0
SMALL
bcc


@<TRIPOS>ATOM
      1 C02         69.3310   -25.4150    47.4080 ca         1 I3B      -0.039300
      2 C03         68.0460   -24.8940    47.2310 ca         1 I3B      -0.098600
      3 C05         67.5130   -24.1230    48.2560 ca         1 I3B       0.340200
      4 C07         69.3690   -24.3240    49.5730 ca         1 I3B       0.262600
      5 C09         69.9930   -25.1150    48.5990 ca         1 I3B       0.024800
      6 C27         72.3330   -22.5090    41.9070 c3         1 I3B      -0.198400
      7 C29         71.7370   -24.0140    43.8740 c3         1 I3B      -0.067400
      8 O13         66.8210   -26.4610    45.8980 os         1 I3B      -0.554200
      9 O32         72.2990   -24.5470    40.6500 o          1 I3B      -0.854800
     10 C01         70.0220   -26.2630    46.3700 c3         1 I3B       0.192100
     11 C04         67.2280   -25.1280    45.9860 c3         1 I3B       0.249700
     12 C08         70.0660   -23.9960    50.8620 c3         1 I3B      -0.123400
     13 C26         72.9670   -23.5330    40.9390 c          1 I3B       0.920600
     14 C28         71.2340   -23.0400    42.8160 c3         1 I3B      -0.049400
     15 C30         70.6030   -24.6070    44.6930 c3         1 I3B       0.132800
     16 N06         68.1480   -23.8440    49.3860 nb         1 I3B      -0.691000
     17 N33         71.0910   -25.5330    45.6990 n7         1 I3B      -0.817200
     18 O10         71.2310   -25.6200    48.7790 oh         1 I3B      -0.483100
     19 O12         65.8660   -28.4150    44.6610 o          1 I3B      -0.916500
     20 O14         67.7060   -27.0130    43.5350 o          1 I3B      -0.916500
     21 O15         65.3600   -26.0240    43.8270 o          1 I3B      -0.916500
     22 O31         74.0960   -23.2380    40.4930 o          1 I3B      -0.854800
     23 P11         66.3960   -27.0270    44.3270 p5         1 I3B       1.255900
     24 H1          66.5160   -23.7060    48.1510 h4         1 I3B       0.009100
     25 H2          73.1220   -22.0460    42.5070 hc         1 I3B      -0.000300
     26 H3          71.9250   -21.6980    41.2920 hc         1 I3B      -0.000300
     27 H4          72.2870   -24.8250    43.3870 hc         1 I3B       0.029700
     28 H5          72.4450   -23.5100    44.5400 hc         1 I3B       0.029700
     29 H7          69.2840   -26.6590    45.6650 h1         1 I3B       0.075700
     30 H8          70.4690   -27.1270    46.8670 h1         1 I3B       0.075700
     31 H9          67.8240   -24.8230    45.1170 h1         1 I3B       0.014200
     32 H10         66.3660   -24.4450    46.0130 h1         1 I3B       0.014200
     33 H11         69.4130   -23.3950    51.4910 hc         1 I3B       0.019700
     34 H12         70.3340   -24.8920    51.4290 hc         1 I3B       0.019700
     35 H13         70.9840   -23.4260    50.7000 hc         1 I3B       0.019700
     36 H14         70.7390   -22.2020    43.3180 hc         1 I3B       0.027200
     37 H15         70.4650   -23.5260    42.2100 hc         1 I3B       0.027200
     38 H16         70.0560   -23.8010    45.1930 h1         1 I3B       0.055700
     39 H17         69.8840   -25.0850    44.0100 h1         1 I3B       0.055700
     40 H18         71.6900   -26.2120    45.2440 hn         1 I3B       0.341800
     41 H20         71.5760   -25.4000    49.6510 ho         1 I3B       0.389000
@<TRIPOS>BOND
     1     1     2 ar  
     2     1     5 ar  
     3     1    10 1   
     4     2     3 ar  
     5     2    11 1   
     6     3    16 ar  
     7     3    24 1   
     8     4     5 ar  
     9     4    12 1   
    10     4    16 ar  
    11     5    18 1   
    12     6    13 1   
    13     6    14 1   
    14     6    25 1   
    15     6    26 1   
    16     7    14 1   
    17     7    15 1   
    18     7    27 1   
    19     7    28 1   
    20     8    11 1   
    21     8    23 1   
    22     9    13 1   
    23    10    17 1   
    24    10    29 1   
    25    10    30 1   
    26    11    31 1   
    27    11    32 1   
    28    12    33 1   
    29    12    34 1   
    30    12    35 1   
    31    13    22 1   
    32    14    36 1   
    33    14    37 1   
    34    15    17 1   
    35    15    38 1   
    36    15    39 1   
    37    17    40 1   
    38    18    41 1   
    39    19    23 1   
    40    20    23 1   
    41    21    23 1   
@<TRIPOS>SUBSTRUCTURE
     1 I3B         1 TEMP              0 ****  ****    0 ROOT
