@<TRIPOS>MOLECULE
I3C
   18    18     1     0     0
SMALL
No Charge or Current Charge


@<TRIPOS>ATOM
      1 I3           3.1180     1.9790    -0.0270 i          1 I3C      -0.408500
      2 I2          -3.1380     1.9630     0.0660 i          1 I3C      -0.408500
      3 I1           0.0030    -3.4440    -0.0290 i          1 I3C      -0.355000
      4 O8           3.0220    -1.5880     1.0220 o          1 I3C      -0.704250
      5 O9           2.9870    -1.5680    -1.1370 o          1 I3C      -0.704250
      6 C10         -2.5110    -1.3020     0.0280 c          1 I3C       0.724600
      7 N13         -0.0120     2.9710     0.0370 nv         1 I3C      -1.097000
      8 C1           1.2150    -0.5430    -0.0190 ca         1 I3C      -0.028600
      9 C6           1.2150     0.8650    -0.0050 ca         1 I3C       0.140000
     10 C5          -0.0090     1.5790     0.0220 ca         1 I3C       0.328000
     11 C4          -1.2300     0.8590     0.0310 ca         1 I3C       0.140000
     12 C3          -1.2230    -0.5490     0.0170 ca         1 I3C      -0.028600
     13 C2          -0.0020    -1.2490    -0.0070 ca         1 I3C       0.197000
     14 O11         -2.9930    -1.6030     1.1120 o          1 I3C      -0.704250
     15 O12         -3.0220    -1.5830    -1.0480 o          1 I3C      -0.704250
     16 HN13         0.8620     3.4830    -0.0850 hn         1 I3C       0.445000
     17 HN1A        -0.8920     3.4800    -0.0590 hn         1 I3C       0.445000
     18 C7           2.5070    -1.2890    -0.0470 c          1 I3C       0.724600
@<TRIPOS>BOND
     1     1     9 1   
     2     2    11 1   
     3     3    13 1   
     4     4    18 1   
     5     5    18 1   
     6     6    12 1   
     7     6    14 1   
     8     6    15 1   
     9     7    10 1   
    10     7    16 1   
    11     7    17 1   
    12     8     9 ar  
    13     8    13 ar  
    14     8    18 1   
    15     9    10 ar  
    16    10    11 ar  
    17    11    12 ar  
    18    12    13 ar  
@<TRIPOS>SUBSTRUCTURE
     1 I3C         1 TEMP              0 ****  ****    0 ROOT
