@<TRIPOS>MOLECULE
I3C
   18    18     1     0     0
SMALL
abcg2


@<TRIPOS>ATOM
      1 I3           3.0370     1.8810     0.0500 i          1 I3C      -0.408500
      2 I2          -3.0540     1.8660     0.1380 i          1 I3C      -0.408500
      3 I1           0.0010    -3.3200    -0.0620 i          1 I3C      -0.355000
      4 O8           3.0120    -1.5830     1.0590 o          1 I3C      -0.704250
      5 O9           2.9780    -1.5330    -1.1810 o          1 I3C      -0.704250
      6 C10         -2.5430    -1.3070     0.0260 c          1 I3C       0.724600
      7 N13         -0.0110     2.9660     0.1070 nv         1 I3C      -1.097000
      8 C1           1.2140    -0.5310    -0.0120 ca         1 I3C      -0.028600
      9 C6           1.1840     0.8550     0.0180 ca         1 I3C       0.140000
     10 C5          -0.0090     1.6030     0.0410 ca         1 I3C       0.328000
     11 C4          -1.1980     0.8490     0.0530 ca         1 I3C       0.140000
     12 C3          -1.2210    -0.5370     0.0240 ca         1 I3C      -0.028600
     13 C2          -0.0020    -1.2020    -0.0120 ca         1 I3C       0.197000
     14 O11         -2.9730    -1.6170     1.1460 o          1 I3C      -0.704250
     15 O12         -3.0240    -1.5310    -1.0930 o          1 I3C      -0.704250
     16 HN13         0.8160     3.4500    -0.2040 hn         1 I3C       0.445000
     17 HN1A        -0.8500     3.4450    -0.1770 hn         1 I3C       0.445000
     18 C7           2.5390    -1.2940    -0.0480 c          1 I3C       0.724600
@<TRIPOS>BOND
     1     1     9 1   
     2     2    11 1   
     3     3    13 1   
     4     4    18 1   
     5     5    18 1   
     6     6    12 1   
     7     6    14 1   
     8     6    15 1   
     9     7    10 1   
    10     7    16 1   
    11     7    17 1   
    12     8     9 ar  
    13     8    13 ar  
    14     8    18 1   
    15     9    10 ar  
    16    10    11 ar  
    17    11    12 ar  
    18    12    13 ar  
@<TRIPOS>SUBSTRUCTURE
     1 I3C         1 TEMP              0 ****  ****    0 ROOT
