@<TRIPOS>MOLECULE
I3D
   26    27     1     0     0
SMALL
bcc


@<TRIPOS>ATOM
      1 N           -8.5050    27.4630   -14.0460 n8         1 I3D      -0.885800
      2 O           -6.2880    26.5650   -15.4600 o          1 I3D      -0.837300
      3 C           -7.3740    26.3510   -16.0350 c          1 I3D       0.902600
      4 CA          -8.6470    26.9780   -15.4090 c3         1 I3D       0.014500
      5 CB          -9.1400    28.1190   -16.3160 c3         1 I3D       0.003800
      6 CG         -10.5070    28.6090   -15.9800 cc         1 I3D      -0.068400
      7 CD1        -10.8500    29.7330   -15.2870 cd         1 I3D      -0.124100
      8 CD2        -11.7410    27.9570   -16.2990 ca         1 I3D      -0.089800
      9 NE1        -12.2120    29.8190   -15.1580 na         1 I3D      -0.180400
     10 CE2        -12.7850    28.7470   -15.7680 ca         1 I3D      -0.049200
     11 CE3        -12.0540    26.7810   -16.9910 ca         1 I3D      -0.069000
     12 CZ2        -14.1280    28.3980   -15.9060 ca         1 I3D      -0.184000
     13 CZ3        -13.3760    26.4430   -17.1250 ca         1 I3D       0.040900
     14 CH2        -14.3960    27.2380   -16.5890 ca         1 I3D       0.101900
     15 FAD        -15.6670    26.8380   -16.7560 f          1 I3D      -0.148900
     16 FAE        -13.7280    25.3230   -17.7810 f          1 I3D      -0.145900
     17 H           -8.3090    26.6740   -13.4420 hn         1 I3D       0.325800
     18 H2          -7.6600    28.0220   -14.0060 hn         1 I3D       0.325800
     19 HA          -9.4220    26.2030   -15.4050 h1         1 I3D       0.042700
     20 HB3         -9.1220    27.7750   -17.3530 hc         1 I3D       0.049700
     21 H1          -8.4260    28.9480   -16.2560 hc         1 I3D       0.049700
     22 HD1        -10.2130    30.4960   -14.8660 h4         1 I3D       0.161000
     23 HE1        -12.7050    30.5640   -14.6960 hn         1 I3D       0.287700
     24 HE3        -11.2830    26.1480   -17.4130 ha         1 I3D       0.176000
     25 HZ2        -14.9310    29.0010   -15.5010 ha         1 I3D       0.137000
     26 OXT         -7.5520    25.6970   -17.0840 o          1 I3D      -0.837300
@<TRIPOS>BOND
     1     1     4 1   
     2     1    17 1   
     3     1    18 1   
     4     2     3 1   
     5     3     4 1   
     6     3    26 1   
     7     4     5 1   
     8     4    19 1   
     9     5     6 1   
    10     5    20 1   
    11     5    21 1   
    12     6     7 2   
    13     6     8 1   
    14     7     9 1   
    15     7    22 1   
    16     8    10 ar  
    17     8    11 ar  
    18     9    10 1   
    19     9    23 1   
    20    10    12 ar  
    21    11    13 ar  
    22    11    24 1   
    23    12    14 ar  
    24    12    25 1   
    25    13    14 ar  
    26    13    16 1   
    27    14    15 1   
@<TRIPOS>SUBSTRUCTURE
     1 I3D         1 TEMP              0 ****  ****    0 ROOT
