@<TRIPOS>MOLECULE
I3D
   26    27     1     0     0
SMALL
No Charge or Current Charge


@<TRIPOS>ATOM
      1 N           -8.5150    27.2870   -13.9860 n8         1 I3D      -0.996200
      2 O           -6.3090    26.8640   -16.0060 o          1 I3D      -0.732000
      3 C           -7.3920    26.3100   -16.1460 c          1 I3D       0.692000
      4 CA          -8.6620    26.9530   -15.4540 c3         1 I3D       0.014500
      5 CB          -9.1330    28.1870   -16.2710 c3         1 I3D       0.003800
      6 CG         -10.5250    28.6660   -15.9340 cc         1 I3D      -0.068400
      7 CD1        -10.8790    29.8380   -15.2720 cd         1 I3D      -0.174100
      8 CD2        -11.7620    28.0090   -16.2550 ca         1 I3D      -0.089800
      9 NE1        -12.2900    29.9220   -15.1670 na         1 I3D      -0.230700
     10 CE2        -12.7830    28.7870   -15.7820 ca         1 I3D      -0.049200
     11 CE3        -12.0000    26.8010   -16.9300 ca         1 I3D      -0.051000
     12 CZ2        -14.1250    28.4140   -15.9430 ca         1 I3D      -0.166000
     13 CZ3        -13.3400    26.4000   -17.1060 ca         1 I3D       0.076000
     14 CH2        -14.3990    27.2040   -16.6130 ca         1 I3D       0.137000
     15 FAD        -15.6840    26.8180   -16.7840 f          1 I3D      -0.184000
     16 FAE        -13.6080    25.2410   -17.7510 f          1 I3D      -0.181000
     17 H           -8.2510    26.4360   -13.4740 hn         1 I3D       0.381000
     18 H2          -7.6910    27.8900   -13.8740 hn         1 I3D       0.381000
     19 HA          -9.4570    26.1970   -15.5240 h1         1 I3D       0.042700
     20 HB3         -9.1060    27.9300   -17.3370 hc         1 I3D       0.049700
     21 H1          -8.4140    29.0050   -16.1420 hc         1 I3D       0.049700
     22 HD1        -10.2310    30.6120   -14.8700 h4         1 I3D       0.211000
     23 HE1        -12.8300    30.6650   -14.7320 hn         1 I3D       0.338000
     24 HE3        -11.1830    26.1920   -17.3070 ha         1 I3D       0.158000
     25 HZ2        -14.9320    29.0360   -15.5650 ha         1 I3D       0.119000
     26 OXT         -7.5210    25.2280   -16.7030 o          1 I3D      -0.732000
@<TRIPOS>BOND
     1     1     4 1   
     2     1    17 1   
     3     1    18 1   
     4     2     3 1   
     5     3     4 1   
     6     3    26 1   
     7     4     5 1   
     8     4    19 1   
     9     5     6 1   
    10     5    20 1   
    11     5    21 1   
    12     6     7 2   
    13     6     8 1   
    14     7     9 1   
    15     7    22 1   
    16     8    10 ar  
    17     8    11 ar  
    18     9    10 1   
    19     9    23 1   
    20    10    12 ar  
    21    11    13 ar  
    22    11    24 1   
    23    12    14 ar  
    24    12    25 1   
    25    13    14 ar  
    26    13    16 1   
    27    14    15 1   
@<TRIPOS>SUBSTRUCTURE
     1 I3D         1 TEMP              0 ****  ****    0 ROOT
