@<TRIPOS>MOLECULE
I3E
   26    26     1     0     0
SMALL
No Charge or Current Charge


@<TRIPOS>ATOM
      1 C1          -2.1960    -0.0180     0.2890 ca         1 I3E      -0.049300
      2 C2          -1.5870     1.2460     0.2070 ca         1 I3E      -0.124000
      3 C3          -0.1910     1.3590     0.0990 ca         1 I3E      -0.062500
      4 C4           0.6290     0.2080     0.0680 ca         1 I3E      -0.180600
      5 C5           0.0080    -1.0620     0.1490 ca         1 I3E      -0.062500
      6 C6          -1.3900    -1.1690     0.2570 ca         1 I3E      -0.124000
      7 C7          -3.7090    -0.1400     0.4010 c3         1 I3E      -0.037100
      8 C8          -4.3880    -0.2380    -0.9770 c3         1 I3E      -0.087100
      9 C9           2.1360     0.3600    -0.0500 c          1 I3E       0.581700
     10 O9           2.6430     1.4750    -0.1160 o          1 I3E      -0.525100
     11 C10          3.0240    -0.9010    -0.0840 c3         1 I3E      -0.175400
     12 C11          4.5470    -0.6590    -0.2070 c3         1 I3E      -0.079100
     13 H2          -2.1980     2.1460     0.2260 ha         1 I3E       0.115000
     14 H3           0.2500     2.3530     0.0370 ha         1 I3E       0.122500
     15 H5           0.5910    -1.9790     0.1290 ha         1 I3E       0.122500
     16 H6          -1.8470    -2.1540     0.3160 ha         1 I3E       0.115000
     17 H7          -3.9750    -1.0240     0.9930 hc         1 I3E       0.048700
     18 H7A         -4.1200     0.7230     0.9400 hc         1 I3E       0.048700
     19 H8          -4.1740     0.6540    -1.5780 hc         1 I3E       0.036033
     20 H8A         -4.0280    -1.1180    -1.5240 hc         1 I3E       0.036033
     21 H8B         -5.4760    -0.3240    -0.8640 hc         1 I3E       0.036033
     22 H10          2.7870    -1.5040     0.8000 hc         1 I3E       0.060200
     23 H11          4.7810    -0.1190    -1.1330 hc         1 I3E       0.040367
     24 H11A         4.9170    -0.0720     0.6420 hc         1 I3E       0.040367
     25 H13          2.6580    -1.5480    -0.8900 hc         1 I3E       0.060200
     26 H14          5.0860    -1.6140    -0.2240 hc         1 I3E       0.040367
@<TRIPOS>BOND
     1     1     2 ar  
     2     1     6 ar  
     3     1     7 1   
     4     2     3 ar  
     5     2    13 1   
     6     3     4 ar  
     7     3    14 1   
     8     4     5 ar  
     9     4     9 1   
    10     5     6 ar  
    11     5    15 1   
    12     6    16 1   
    13     7     8 1   
    14     7    17 1   
    15     7    18 1   
    16     8    19 1   
    17     8    20 1   
    18     8    21 1   
    19     9    10 2   
    20     9    11 1   
    21    11    12 1   
    22    11    22 1   
    23    11    25 1   
    24    12    23 1   
    25    12    24 1   
    26    12    26 1   
@<TRIPOS>SUBSTRUCTURE
     1 I3E         1 TEMP              0 ****  ****    0 ROOT
