@<TRIPOS>MOLECULE
I3E
   26    26     1     0     0
SMALL
bcc


@<TRIPOS>ATOM
      1 C1          -2.1730     0.0070     0.3220 ca         1 I3E      -0.049300
      2 C2          -1.5460     1.2500     0.2300 ca         1 I3E      -0.142000
      3 C3          -0.1710     1.3490     0.1270 ca         1 I3E      -0.080500
      4 C4           0.6250     0.2020     0.1060 ca         1 I3E      -0.180600
      5 C5           0.0010    -1.0420     0.1940 ca         1 I3E      -0.080500
      6 C6          -1.3770    -1.1350     0.3040 ca         1 I3E      -0.142000
      7 C7          -3.6690    -0.1010     0.3890 c3         1 I3E      -0.037100
      8 C8          -4.2820    -0.3030    -0.9960 c3         1 I3E      -0.087100
      9 C9           2.1030     0.3450    -0.0050 c          1 I3E       0.581700
     10 O9           2.6160     1.4460    -0.0040 o          1 I3E      -0.525100
     11 C10          2.9360    -0.9060    -0.1330 c3         1 I3E      -0.175400
     12 C11          4.4290    -0.6480    -0.2370 c3         1 I3E      -0.079100
     13 H2          -2.1480     2.1520     0.2440 ha         1 I3E       0.133000
     14 H3           0.2900     2.3250     0.0590 ha         1 I3E       0.140500
     15 H5           0.5860    -1.9530     0.1850 ha         1 I3E       0.140500
     16 H6          -1.8390    -2.1130     0.3810 ha         1 I3E       0.133000
     17 H7          -3.9490    -0.9370     1.0330 hc         1 I3E       0.048700
     18 H7A         -4.0850     0.8010     0.8430 hc         1 I3E       0.048700
     19 H8          -4.0540     0.5340    -1.6560 hc         1 I3E       0.036033
     20 H8A         -3.9020    -1.2120    -1.4650 hc         1 I3E       0.036033
     21 H8B         -5.3670    -0.3900    -0.9300 hc         1 I3E       0.036033
     22 H10          2.7220    -1.5600     0.7190 hc         1 I3E       0.060200
     23 H11          4.6730    -0.0260    -1.0980 hc         1 I3E       0.040367
     24 H11A         4.8160    -0.1550     0.6530 hc         1 I3E       0.040367
     25 H13          2.5810    -1.4580    -1.0090 hc         1 I3E       0.060200
     26 H14          4.9600    -1.5930    -0.3500 hc         1 I3E       0.040367
@<TRIPOS>BOND
     1     1     2 ar  
     2     1     6 ar  
     3     1     7 1   
     4     2     3 ar  
     5     2    13 1   
     6     3     4 ar  
     7     3    14 1   
     8     4     5 ar  
     9     4     9 1   
    10     5     6 ar  
    11     5    15 1   
    12     6    16 1   
    13     7     8 1   
    14     7    17 1   
    15     7    18 1   
    16     8    19 1   
    17     8    20 1   
    18     8    21 1   
    19     9    10 2   
    20     9    11 1   
    21    11    12 1   
    22    11    22 1   
    23    11    25 1   
    24    12    23 1   
    25    12    24 1   
    26    12    26 1   
@<TRIPOS>SUBSTRUCTURE
     1 I3E         1 TEMP              0 ****  ****    0 ROOT
