@<TRIPOS>MOLECULE
I3J
   22    22     1     0     0
SMALL
abcg2


@<TRIPOS>ATOM
      1 C10        -27.5070    -0.8300   -23.7080 ca         1 I3J      -0.055500
      2 C12        -25.2300    -3.4140   -21.9050 c          1 I3J       0.726000
      3 C01        -27.6190    -5.0750   -20.0590 c1         1 I3J       0.388000
      4 C03        -26.7930    -3.4010   -21.8440 c3         1 I3J       0.123800
      5 C04        -27.3160    -2.0010   -21.4840 c3         1 I3J      -0.025100
      6 C05        -26.8720    -0.9640   -22.4750 ca         1 I3J      -0.075300
      7 C06        -25.8020    -0.1190   -22.2030 ca         1 I3J      -0.055500
      8 C07        -25.3740     0.8280   -23.1230 ca         1 I3J      -0.178000
      9 C08        -26.0180     0.9470   -24.3510 ca         1 I3J       0.116100
     10 C09        -27.0930     0.1070   -24.6400 ca         1 I3J      -0.178000
     11 N02        -27.2560    -4.3270   -20.8720 n1         1 I3J      -0.854500
     12 O11        -25.6510     1.8480   -25.2850 oh         1 I3J      -0.551100
     13 H1         -28.3480    -1.4700   -23.9500 ha         1 I3J       0.115500
     14 H5         -27.2090    -3.7090   -22.8060 h1         1 I3J       0.051700
     15 H6         -26.9580    -1.7460   -20.4850 hc         1 I3J       0.040200
     16 H7         -28.4070    -2.0360   -21.4370 hc         1 I3J       0.040200
     17 H8         -25.2850    -0.1980   -21.2540 ha         1 I3J       0.115500
     18 H9         -24.5380     1.4750   -22.8800 ha         1 I3J       0.104500
     19 H10        -27.6020     0.1950   -25.5920 ha         1 I3J       0.104500
     20 H13        -24.9040     2.3710   -24.9740 ho         1 I3J       0.453000
     21 O13        -24.7400    -3.5070   -23.0400 o          1 I3J      -0.704000
     22 O14        -24.6580    -3.2950   -20.8110 o          1 I3J      -0.704000
@<TRIPOS>BOND
     1     1     6 ar  
     2     1    10 ar  
     3     1    13 1   
     4     2     4 1   
     5     2    21 1   
     6     2    22 1   
     7     3    11 3   
     8     4     5 1   
     9     4    11 1   
    10     4    14 1   
    11     5     6 1   
    12     5    15 1   
    13     5    16 1   
    14     6     7 ar  
    15     7     8 ar  
    16     7    17 1   
    17     8     9 ar  
    18     8    18 1   
    19     9    10 ar  
    20     9    12 1   
    21    10    19 1   
    22    12    20 1   
@<TRIPOS>SUBSTRUCTURE
     1 I3J         1 TEMP              0 ****  ****    0 ROOT
