@<TRIPOS>MOLECULE
I3J
   22    22     1     0     0
SMALL
No Charge or Current Charge


@<TRIPOS>ATOM
      1 C10        -27.4940    -0.8620   -23.7130 ca         1 I3J      -0.055500
      2 C12        -25.1960    -3.5260   -21.8930 c          1 I3J       0.726000
      3 C01        -27.8580    -5.1580   -20.1580 c1         1 I3J       0.388000
      4 C03        -26.7780    -3.4140   -21.8200 c3         1 I3J       0.123800
      5 C04        -27.2530    -1.9850   -21.4440 c3         1 I3J      -0.025100
      6 C05        -26.8330    -0.9390   -22.4710 ca         1 I3J      -0.075300
      7 C06        -25.7830    -0.0420   -22.1890 ca         1 I3J      -0.055500
      8 C07        -25.3970     0.9190   -23.1410 ca         1 I3J      -0.178000
      9 C08        -26.0600     0.9890   -24.3760 ca         1 I3J       0.116100
     10 C09        -27.1060     0.1010   -24.6620 ca         1 I3J      -0.178000
     11 N02        -27.4090    -4.3760   -20.9000 n1         1 I3J      -0.854500
     12 O11        -25.6910     1.9190   -25.3000 oh         1 I3J      -0.551100
     13 H1         -28.3070    -1.5470   -23.9420 ha         1 I3J       0.115500
     14 H5         -27.1530    -3.6370   -22.8280 h1         1 I3J       0.051700
     15 H6         -26.8750    -1.7230   -20.4480 hc         1 I3J       0.040200
     16 H7         -28.3470    -1.9820   -21.3610 hc         1 I3J       0.040200
     17 H8         -25.2630    -0.0920   -21.2350 ha         1 I3J       0.115500
     18 H9         -24.5850     1.6040   -22.9110 ha         1 I3J       0.104500
     19 H10        -27.6200     0.1550   -25.6190 ha         1 I3J       0.104500
     20 H13        -24.9510     2.4460   -24.9300 ho         1 I3J       0.453000
     21 O13        -24.6990    -4.0380   -22.8910 o          1 I3J      -0.704000
     22 O14        -24.5220    -3.1310   -20.9460 o          1 I3J      -0.704000
@<TRIPOS>BOND
     1     1     6 ar  
     2     1    10 ar  
     3     1    13 1   
     4     2     4 1   
     5     2    21 1   
     6     2    22 1   
     7     3    11 3   
     8     4     5 1   
     9     4    11 1   
    10     4    14 1   
    11     5     6 1   
    12     5    15 1   
    13     5    16 1   
    14     6     7 ar  
    15     7     8 ar  
    16     7    17 1   
    17     8     9 ar  
    18     8    18 1   
    19     9    10 ar  
    20     9    12 1   
    21    10    19 1   
    22    12    20 1   
@<TRIPOS>SUBSTRUCTURE
     1 I3J         1 TEMP              0 ****  ****    0 ROOT
