@<TRIPOS>MOLECULE
I3K
   50    54     1     0     0
SMALL
No Charge or Current Charge


@<TRIPOS>ATOM
      1 C19          9.3620     0.5490     1.3060 c3         1 I3K       0.142900
      2 O18          8.3790    -0.3850     0.8260 os         1 I3K      -0.317100
      3 C13          7.0890    -0.0060     0.4900 ca         1 I3K       0.147100
      4 C14          6.6570     1.3340     0.6000 ca         1 I3K      -0.184000
      5 C12          6.1930    -0.9970     0.0280 ca         1 I3K       0.117100
      6 O16          6.6430    -2.3050    -0.0700 os         1 I3K      -0.319100
      7 C17          5.8050    -3.3800    -0.5290 c3         1 I3K       0.143900
      8 C15          4.8740    -0.6350    -0.3200 ca         1 I3K      -0.155000
      9 C6           4.4520     0.7080    -0.2060 ca         1 I3K      -0.094000
     10 C7           5.3470     1.7030     0.2570 ca         1 I3K       0.305000
     11 N8           4.9810     2.9990     0.3780 nb         1 I3K      -0.684000
     12 C9           3.7220     3.3560     0.0430 ca         1 I3K       0.378900
     13 C10          2.7750     2.4400    -0.4220 ca         1 I3K      -0.263000
     14 C11          3.1380     1.0920    -0.5430 ca         1 I3K       0.186100
     15 O20          2.2330     0.1650    -1.0140 os         1 I3K      -0.248200
     16 C21          0.9120     0.1480    -0.6290 ca         1 I3K       0.087100
     17 C22         -0.0640    -0.2240    -1.5810 ca         1 I3K      -0.071000
     18 C24          0.5370     0.4640     0.7050 ca         1 I3K      -0.116000
     19 C23         -0.8200     0.4300     1.0890 ca         1 I3K      -0.070000
     20 C1          -1.7470     0.0680     0.1070 ca         1 I3K       0.008100
     21 O5          -3.0790    -0.0440     0.2060 os         1 I3K      -0.292700
     22 C2          -1.4080    -0.2550    -1.1850 ca         1 I3K       0.105400
     23 N3          -2.5330    -0.5810    -1.9520 nc         1 I3K      -0.644100
     24 C4          -3.4870    -0.4410    -1.0310 cd         1 I3K       0.777500
     25 N25         -4.7830    -0.5920    -1.3630 nu         1 I3K      -0.900200
     26 C26         -5.9910    -0.5490    -0.6660 ca         1 I3K       0.301000
     27 C27         -6.0580    -0.5400     0.7430 ca         1 I3K      -0.128000
     28 C28         -7.3040    -0.5010     1.3980 ca         1 I3K      -0.078500
     29 C29         -8.4910    -0.4750     0.6500 ca         1 I3K       0.103000
     30 Cl3        -10.0460    -0.4280     1.4680 cl         1 I3K      -0.194000
     31 C30         -8.4350    -0.4920    -0.7530 ca         1 I3K      -0.078500
     32 C31         -7.1880    -0.5320    -1.4050 ca         1 I3K      -0.128000
     33 H19          9.5550     1.3310     0.5600 h1         1 I3K       0.044033
     34 H19A         9.0280     1.0230     2.2380 h1         1 I3K       0.044033
     35 H19B        10.3090     0.0330     1.5090 h1         1 I3K       0.044033
     36 H14          7.3270     2.1100     0.9530 ha         1 I3K       0.139000
     37 H17          4.9320    -3.5010     0.1250 h1         1 I3K       0.042367
     38 H17A         5.4580    -3.1950    -1.5530 h1         1 I3K       0.042367
     39 H17B         6.3640    -4.3240    -0.5260 h1         1 I3K       0.042367
     40 H15          4.1720    -1.3830    -0.6760 ha         1 I3K       0.135000
     41 H9           3.4710     4.4100     0.1500 h4         1 I3K       0.016100
     42 H10          1.7800     2.7800    -0.6880 ha         1 I3K       0.134000
     43 H22          0.2190    -0.4770    -2.5980 ha         1 I3K       0.151000
     44 H24          1.2940     0.7290     1.4400 ha         1 I3K       0.137000
     45 H23         -1.1330     0.6700     2.1020 ha         1 I3K       0.139000
     46 HN25        -4.8550    -0.7440    -2.3640 hn         1 I3K       0.529000
     47 H27         -5.1580    -0.5750     1.3450 ha         1 I3K       0.129000
     48 H28         -7.3480    -0.4950     2.4840 ha         1 I3K       0.134000
     49 H30         -9.3540    -0.4760    -1.3320 ha         1 I3K       0.134000
     50 H31         -7.1580    -0.5440    -2.4910 ha         1 I3K       0.129000
@<TRIPOS>BOND
     1     1     2 1   
     2     1    33 1   
     3     1    34 1   
     4     1    35 1   
     5     2     3 1   
     6     3     4 ar  
     7     3     5 ar  
     8     4    10 ar  
     9     4    36 1   
    10     5     6 1   
    11     5     8 ar  
    12     6     7 1   
    13     7    37 1   
    14     7    38 1   
    15     7    39 1   
    16     8     9 ar  
    17     8    40 1   
    18     9    10 ar  
    19     9    14 ar  
    20    10    11 ar  
    21    11    12 ar  
    22    12    13 ar  
    23    12    41 1   
    24    13    14 ar  
    25    13    42 1   
    26    14    15 1   
    27    15    16 1   
    28    16    17 ar  
    29    16    18 ar  
    30    17    22 ar  
    31    17    43 1   
    32    18    19 ar  
    33    18    44 1   
    34    19    20 ar  
    35    19    45 1   
    36    20    21 1   
    37    20    22 ar  
    38    21    24 1   
    39    22    23 1   
    40    23    24 2   
    41    24    25 1   
    42    25    26 1   
    43    25    46 1   
    44    26    27 ar  
    45    26    32 ar  
    46    27    28 ar  
    47    27    47 1   
    48    28    29 ar  
    49    28    48 1   
    50    29    30 1   
    51    29    31 ar  
    52    31    32 ar  
    53    31    49 1   
    54    32    50 1   
@<TRIPOS>SUBSTRUCTURE
     1 I3K         1 TEMP              0 ****  ****    0 ROOT
