@<TRIPOS>MOLECULE
I3K
   50    54     1     0     0
SMALL
bcc


@<TRIPOS>ATOM
      1 C19          9.2940     1.0720     0.0540 c3         1 I3K       0.119700
      2 O18          8.4140    -0.0290    -0.0650 os         1 I3K      -0.293900
      3 C13          7.1010     0.1980     0.0480 ca         1 I3K       0.147100
      4 C14          6.5260     1.4180     0.2770 ca         1 I3K      -0.267300
      5 C12          6.2770    -0.9660    -0.0950 ca         1 I3K       0.117100
      6 O16          6.9510    -2.1020    -0.3210 os         1 I3K      -0.295900
      7 C17          6.2090    -3.2920    -0.5000 c3         1 I3K       0.120700
      8 C15          4.9180    -0.8570     0.0020 ca         1 I3K      -0.173000
      9 C6           4.3140     0.4030     0.2390 ca         1 I3K      -0.159300
     10 C7           5.1200     1.5540     0.3790 ca         1 I3K       0.435600
     11 N8           4.6120     2.7870     0.6040 nb         1 I3K      -0.684000
     12 C9           3.3110     2.8990     0.6930 ca         1 I3K       0.444200
     13 C10          2.4060     1.8350     0.5700 ca         1 I3K      -0.346300
     14 C11          2.9140     0.5790     0.3430 ca         1 I3K       0.186100
     15 O20          2.1700    -0.5350     0.2040 os         1 I3K      -0.248200
     16 C21          0.7950    -0.4370     0.2520 ca         1 I3K       0.087100
     17 C22          0.1080    -0.2560    -0.9400 ca         1 I3K      -0.089000
     18 C24          0.1620    -0.5650     1.4850 ca         1 I3K      -0.134000
     19 C23         -1.2280    -0.5210     1.5710 ca         1 I3K      -0.088000
     20 C1          -1.8960    -0.3460     0.3840 ca         1 I3K       0.008100
     21 O5          -3.2430    -0.2750     0.1640 os         1 I3K      -0.292700
     22 C2          -1.2770    -0.2130    -0.8560 ca         1 I3K       0.105400
     23 N3          -2.2430    -0.0520    -1.8270 nc         1 I3K      -0.644100
     24 C4          -3.3560    -0.1010    -1.1660 cd         1 I3K       0.777500
     25 N25         -4.5880    -0.0160    -1.6930 nu         1 I3K      -0.706600
     26 C26         -5.8160    -0.0450    -1.0210 ca         1 I3K       0.162600
     27 C27         -6.0240     0.6040     0.1950 ca         1 I3K      -0.146000
     28 C28         -7.2690     0.5580     0.8020 ca         1 I3K      -0.096500
     29 C29         -8.3140    -0.1120     0.1870 ca         1 I3K       0.011400
     30 CL3         -9.8700    -0.1580     0.9470 cl         1 I3K      -0.102400
     31 C30         -8.1280    -0.7400    -1.0340 ca         1 I3K      -0.096500
     32 C31         -6.8790    -0.7100    -1.6290 ca         1 I3K      -0.146000
     33 H19          9.1040     1.8260    -0.7140 h1         1 I3K       0.044033
     34 H19A         9.2230     1.5430     1.0370 h1         1 I3K       0.044033
     35 H19B        10.2990     0.6780    -0.0770 h1         1 I3K       0.044033
     36 H14          7.1220     2.3130     0.3860 ha         1 I3K       0.157000
     37 H17          5.6290    -3.5480     0.3910 h1         1 I3K       0.042367
     38 H17A         5.5320    -3.2230    -1.3550 h1         1 I3K       0.042367
     39 H17B         6.9330    -4.0820    -0.6860 h1         1 I3K       0.042367
     40 H15          4.2890    -1.7290    -0.1030 ha         1 I3K       0.153000
     41 H9           2.9190     3.8940     0.8740 h4         1 I3K       0.016100
     42 H10          1.3450     2.0230     0.6580 ha         1 I3K       0.152000
     43 H22          0.6290    -0.1590    -1.8830 ha         1 I3K       0.169000
     44 H24          0.7530    -0.7090     2.3790 ha         1 I3K       0.155000
     45 H23         -1.7370    -0.6240     2.5180 ha         1 I3K       0.157000
     46 HN25        -4.6120    -0.0730    -2.7000 hn         1 I3K       0.473800
     47 H27         -5.2370     1.1670     0.6720 ha         1 I3K       0.147000
     48 H28         -7.4200     1.0650     1.7460 ha         1 I3K       0.152000
     49 H30         -8.9430    -1.2620    -1.5180 ha         1 I3K       0.152000
     50 H31         -6.7290    -1.2160    -2.5750 ha         1 I3K       0.147000
@<TRIPOS>BOND
     1     1     2 1   
     2     1    33 1   
     3     1    34 1   
     4     1    35 1   
     5     2     3 1   
     6     3     4 ar  
     7     3     5 ar  
     8     4    10 ar  
     9     4    36 1   
    10     5     6 1   
    11     5     8 ar  
    12     6     7 1   
    13     7    37 1   
    14     7    38 1   
    15     7    39 1   
    16     8     9 ar  
    17     8    40 1   
    18     9    10 ar  
    19     9    14 ar  
    20    10    11 ar  
    21    11    12 ar  
    22    12    13 ar  
    23    12    41 1   
    24    13    14 ar  
    25    13    42 1   
    26    14    15 1   
    27    15    16 1   
    28    16    17 ar  
    29    16    18 ar  
    30    17    22 ar  
    31    17    43 1   
    32    18    19 ar  
    33    18    44 1   
    34    19    20 ar  
    35    19    45 1   
    36    20    21 1   
    37    20    22 ar  
    38    21    24 1   
    39    22    23 1   
    40    23    24 2   
    41    24    25 1   
    42    25    26 1   
    43    25    46 1   
    44    26    27 ar  
    45    26    32 ar  
    46    27    28 ar  
    47    27    47 1   
    48    28    29 ar  
    49    28    48 1   
    50    29    30 1   
    51    29    31 ar  
    52    31    32 ar  
    53    31    49 1   
    54    32    50 1   
@<TRIPOS>SUBSTRUCTURE
     1 I3K         1 TEMP              0 ****  ****    0 ROOT
