@<TRIPOS>MOLECULE
I3L
   20    19     1     0     0
SMALL
abcg2


@<TRIPOS>ATOM
      1 O1          -6.1930   -41.4480    20.5440 o          1 I3L      -0.727500
      2 C1          -0.0600   -42.8750    17.2880 c2         1 I3L      -0.191200
      3 C5          -5.4080   -42.3980    20.7450 c          1 I3L       0.694000
      4 C4          -3.9230   -42.1320    20.3570 c3         1 I3L       0.005500
      5 C3          -3.8490   -42.0040    18.8380 c3         1 I3L       0.119600
      6 C2          -1.3530   -43.0050    18.0230 c3         1 I3L       0.101800
      7 N           -2.9620   -43.1090    20.8370 n8         1 I3L      -0.999200
      8 C            0.4490   -41.7860    16.7240 c2         1 I3L      -0.330000
      9 O           -5.6870   -43.5230    21.1990 o          1 I3L      -0.727500
     10 S           -2.2550   -41.4380    18.1760 ss         1 I3L      -0.512000
     11 H1           0.5020   -43.8030    17.2310 ha         1 I3L       0.149000
     12 H2          -3.6440   -41.1600    20.7780 h1         1 I3L       0.054700
     13 H3          -4.5810   -41.2710    18.5020 h1         1 I3L       0.065700
     14 H4          -4.1020   -42.9530    18.3540 h1         1 I3L       0.065700
     15 H5          -1.9900   -43.7270    17.5040 h1         1 I3L       0.071200
     16 H6          -1.1770   -43.4100    19.0200 h1         1 I3L       0.071200
     17 H7          -2.9690   -43.0980    21.8500 hn         1 I3L       0.382500
     18 H8          -3.3010   -44.0320    20.5920 hn         1 I3L       0.382500
     19 H10          1.4030   -41.8210    16.2160 ha         1 I3L       0.160500
     20 H11         -0.0530   -40.8270    16.7390 ha         1 I3L       0.160500
@<TRIPOS>BOND
     1     1     3 1   
     2     2     6 1   
     3     2     8 2   
     4     2    11 1   
     5     3     4 1   
     6     3     9 1   
     7     4     5 1   
     8     4     7 1   
     9     4    12 1   
    10     5    10 1   
    11     5    13 1   
    12     5    14 1   
    13     6    10 1   
    14     6    15 1   
    15     6    16 1   
    16     7    17 1   
    17     7    18 1   
    18     8    19 1   
    19     8    20 1   
@<TRIPOS>SUBSTRUCTURE
     1 I3L         1 TEMP              0 ****  ****    0 ROOT
