@<TRIPOS>MOLECULE
I3L
   20    19     1     0     0
SMALL
No Charge or Current Charge


@<TRIPOS>ATOM
      1 O1          -5.9190   -41.5530    21.6620 o          1 I3L      -0.727500
      2 C1           0.1160   -42.3860    17.5240 c2         1 I3L      -0.191200
      3 C5          -5.4830   -42.3250    20.8190 c          1 I3L       0.694000
      4 C4          -3.9540   -42.2360    20.4420 c3         1 I3L       0.005500
      5 C3          -3.8310   -41.8920    18.9300 c3         1 I3L       0.119600
      6 C2          -1.2510   -42.7580    18.0550 c3         1 I3L       0.101800
      7 N           -3.1110   -43.4330    20.8460 n8         1 I3L      -0.999200
      8 C            0.4500   -42.2970    16.2260 c2         1 I3L      -0.330000
      9 O           -6.1560   -43.2160    20.3150 o          1 I3L      -0.727500
     10 S           -2.1630   -41.2010    18.4640 ss         1 I3L      -0.512000
     11 H1           0.8560   -42.1830    18.3010 ha         1 I3L       0.149000
     12 H2          -3.5610   -41.3700    20.9940 h1         1 I3L       0.054700
     13 H3          -4.5790   -41.1240    18.6910 h1         1 I3L       0.065700
     14 H4          -4.0590   -42.7740    18.3160 h1         1 I3L       0.065700
     15 H5          -1.8130   -43.3290    17.3040 h1         1 I3L       0.071200
     16 H6          -1.1480   -43.3770    18.9560 h1         1 I3L       0.071200
     17 H7          -3.1860   -43.5690    21.8610 hn         1 I3L       0.382500
     18 H8          -3.5450   -44.2830    20.4640 hn         1 I3L       0.382500
     19 H10          1.4580   -42.0210    15.9140 ha         1 I3L       0.160500
     20 H11         -0.2730   -42.4920    15.4330 ha         1 I3L       0.160500
@<TRIPOS>BOND
     1     1     3 1   
     2     2     6 1   
     3     2     8 2   
     4     2    11 1   
     5     3     4 1   
     6     3     9 1   
     7     4     5 1   
     8     4     7 1   
     9     4    12 1   
    10     5    10 1   
    11     5    13 1   
    12     5    14 1   
    13     6    10 1   
    14     6    15 1   
    15     6    16 1   
    16     7    17 1   
    17     7    18 1   
    18     8    19 1   
    19     8    20 1   
@<TRIPOS>SUBSTRUCTURE
     1 I3L         1 TEMP              0 ****  ****    0 ROOT
