@<TRIPOS>MOLECULE
I3M
    3     2     1     0     0
SMALL
abcg2


@<TRIPOS>ATOM
      1 I01         -2.8910     0.0130    -0.0360 i          1 I3M      -0.511500
      2 I02          0.0430     0.0310     0.0050 i          1 I3M       0.023000
      3 I03          2.9780     0.0510     0.0470 i          1 I3M      -0.511500
@<TRIPOS>BOND
     1     1     2 1   
     2     2     3 1   
@<TRIPOS>SUBSTRUCTURE
     1 I3M         1 TEMP              0 ****  ****    0 ROOT
