@<TRIPOS>MOLECULE
I3M
    3     2     1     0     0
SMALL
No Charge or Current Charge


@<TRIPOS>ATOM
      1 I01          0.1180     0.9420     0.4610 i          1 I3M      -0.511500
      2 I02         -0.1060    -1.7900    -0.9070 i          1 I3M       0.023000
      3 I03          0.1180     0.9420     0.4610 i          1 I3M      -0.511500
@<TRIPOS>BOND
     1     1     2 1   
     2     2     3 1   
@<TRIPOS>SUBSTRUCTURE
     1 I3M         1 TEMP              0 ****  ****    0 ROOT
