@<TRIPOS>MOLECULE
I3N
   41    43     1     0     0
SMALL
abcg2


@<TRIPOS>ATOM
      1 C1           3.6560    -0.4050     4.2090 c3         1 I3N       0.159900
      2 O2           2.2740    -0.4610     3.9690 os         1 I3N      -0.344100
      3 C3           1.8040    -0.0120     2.7860 ca         1 I3N       0.071100
      4 C4           0.4190    -0.0050     2.6360 ca         1 I3N      -0.055000
      5 C5          -0.1300     0.4540     1.4330 ca         1 I3N      -0.042800
      6 C6           0.7250     0.9170     0.4090 ca         1 I3N      -0.068200
      7 C7           2.1030     0.8790     0.5410 ca         1 I3N      -0.116000
      8 C8           2.6390     0.4130     1.7340 ca         1 I3N      -0.179000
      9 N9          -0.0600     1.3230    -0.6410 na         1 I3N      -0.112700
     10 C10         -1.3850     1.1200    -0.3060 cc         1 I3N      -0.103300
     11 C11         -1.4700     0.5660     0.9420 cd         1 I3N      -0.024400
     12 C12         -2.6930     0.2110     1.7160 c3         1 I3N      -0.168200
     13 C13         -2.9090    -1.2950     1.9040 c          1 I3N       0.725000
     14 O14         -3.8900    -1.5500     2.6120 o          1 I3N      -0.730000
     15 O15         -2.0950    -2.1000     1.4150 o          1 I3N      -0.730000
     16 C16         -2.4630     1.4180    -1.2860 c3         1 I3N      -0.022900
     17 C17          0.4400     1.7000    -1.9360 c3         1 I3N       0.134900
     18 C18          0.6780     0.5360    -2.8720 ca         1 I3N      -0.109300
     19 C19          1.2280     0.7890    -4.1290 ca         1 I3N      -0.097500
     20 C20          1.4190    -0.2370    -5.0400 ca         1 I3N      -0.115000
     21 C21          1.0690    -1.5400    -4.7030 ca         1 I3N      -0.121000
     22 C22          0.5630    -1.8040    -3.4420 ca         1 I3N      -0.115000
     23 C23          0.3570    -0.7720    -2.5330 ca         1 I3N      -0.097500
     24 H11          4.0400     0.6180     4.1770 h1         1 I3N       0.024033
     25 H12          3.8150    -0.8030     5.2100 h1         1 I3N       0.024033
     26 H13          4.2250    -1.0160     3.5030 h1         1 I3N       0.024033
     27 H4          -0.2120    -0.3450     3.4490 ha         1 I3N       0.144000
     28 H7           2.7640     1.1960    -0.2580 ha         1 I3N       0.097000
     29 H8           3.7150     0.3920     1.8400 ha         1 I3N       0.094000
     30 H121        -2.6230     0.6520     2.7160 hc         1 I3N       0.032200
     31 H122        -3.5920     0.6480     1.2740 hc         1 I3N       0.032200
     32 H161        -2.3800     0.8050    -2.1870 hc         1 I3N       0.036700
     33 H162        -3.4380     1.2210    -0.8420 hc         1 I3N       0.036700
     34 H163        -2.4590     2.4660    -1.5940 hc         1 I3N       0.036700
     35 H171        -0.2610     2.4070    -2.3850 h1         1 I3N       0.051700
     36 H172         1.3760     2.2520    -1.8070 h1         1 I3N       0.051700
     37 H19          1.4510     1.8100    -4.4190 ha         1 I3N       0.129000
     38 H20          1.8230    -0.0150    -6.0200 ha         1 I3N       0.108500
     39 H21          1.2350    -2.3480    -5.4040 ha         1 I3N       0.101000
     40 H22          0.2830    -2.8140    -3.1700 ha         1 I3N       0.108500
     41 H23         -0.1020    -0.9960    -1.5780 ha         1 I3N       0.129000
@<TRIPOS>BOND
     1     1     2 1   
     2     1    24 1   
     3     1    25 1   
     4     1    26 1   
     5     2     3 1   
     6     3     4 ar  
     7     3     8 ar  
     8     4     5 ar  
     9     4    27 1   
    10     5     6 ar  
    11     5    11 1   
    12     6     7 ar  
    13     6     9 1   
    14     7     8 ar  
    15     7    28 1   
    16     8    29 1   
    17     9    10 1   
    18     9    17 1   
    19    10    11 2   
    20    10    16 1   
    21    11    12 1   
    22    12    13 1   
    23    12    30 1   
    24    12    31 1   
    25    13    14 1   
    26    13    15 1   
    27    16    32 1   
    28    16    33 1   
    29    16    34 1   
    30    17    18 1   
    31    17    35 1   
    32    17    36 1   
    33    18    19 ar  
    34    18    23 ar  
    35    19    20 ar  
    36    19    37 1   
    37    20    21 ar  
    38    20    38 1   
    39    21    22 ar  
    40    21    39 1   
    41    22    23 ar  
    42    22    40 1   
    43    23    41 1   
@<TRIPOS>SUBSTRUCTURE
     1 I3N         1 TEMP              0 ****  ****    0 ROOT
