@<TRIPOS>MOLECULE
I3N
   41    43     1     0     0
SMALL
No Charge or Current Charge


@<TRIPOS>ATOM
      1 C1           3.8290    -0.3890     4.0780 c3         1 I3N       0.159900
      2 O2           2.4030    -0.3170     3.9030 os         1 I3N      -0.344100
      3 C3           1.8260     0.0750     2.7110 ca         1 I3N       0.071100
      4 C4           0.4170     0.1110     2.6430 ca         1 I3N      -0.055000
      5 C5          -0.1760     0.5080     1.4360 ca         1 I3N      -0.042800
      6 C6           0.5660     0.8550     0.3430 ca         1 I3N      -0.068200
      7 C7           1.9690     0.8260     0.3730 ca         1 I3N      -0.116000
      8 C8           2.6010     0.4330     1.5730 ca         1 I3N      -0.179000
      9 N9          -0.2950     1.1940    -0.6910 na         1 I3N      -0.112700
     10 C10         -1.6390     1.0560    -0.2780 cc         1 I3N      -0.103300
     11 C11         -1.5670     0.6390     1.0510 cd         1 I3N      -0.024400
     12 C12         -2.7420     0.3690     1.9660 c3         1 I3N      -0.168200
     13 C13         -3.1210    -1.1210     1.9760 c          1 I3N       0.725000
     14 O14         -2.5450    -1.8570     2.7630 o          1 I3N      -0.730000
     15 O15         -3.9030    -1.5240     1.1270 o          1 I3N      -0.730000
     16 C16         -2.8420     1.3260    -1.1470 c3         1 I3N      -0.022900
     17 C17          0.2060     1.6220    -2.0140 c3         1 I3N       0.134900
     18 C18          0.6830     0.4820    -2.9150 ca         1 I3N      -0.109300
     19 C19          1.7500     0.7050    -3.8090 ca         1 I3N      -0.097500
     20 C20          2.2030    -0.3270    -4.6500 ca         1 I3N      -0.115000
     21 C21          1.5900    -1.5900    -4.6070 ca         1 I3N      -0.121000
     22 C22          0.5230    -1.8200    -3.7240 ca         1 I3N      -0.115000
     23 C23          0.0690    -0.7890    -2.8820 ca         1 I3N      -0.097500
     24 H11          4.2910     0.5940     3.9220 h1         1 I3N       0.024033
     25 H12          4.0700    -0.7200     5.0960 h1         1 I3N       0.024033
     26 H13          4.2720    -1.1040     3.3730 h1         1 I3N       0.024033
     27 H4          -0.1870    -0.1660     3.5010 ha         1 I3N       0.144000
     28 H7           2.5590     1.0950    -0.5000 ha         1 I3N       0.097000
     29 H8           3.6860     0.4100     1.6000 ha         1 I3N       0.094000
     30 H121        -2.4310     0.6770     2.9710 hc         1 I3N       0.032200
     31 H122        -3.5830     0.9630     1.5900 hc         1 I3N       0.032200
     32 H161        -2.6670     0.9990    -2.1790 hc         1 I3N       0.036700
     33 H162        -3.7270     0.7940    -0.7830 hc         1 I3N       0.036700
     34 H163        -3.0740     2.3970    -1.1650 hc         1 I3N       0.036700
     35 H171        -0.5900     2.1700    -2.5310 h1         1 I3N       0.051700
     36 H172         1.0270     2.3320    -1.8560 h1         1 I3N       0.051700
     37 H19          2.2320     1.6800    -3.8520 ha         1 I3N       0.129000
     38 H20          3.0290    -0.1460    -5.3350 ha         1 I3N       0.108500
     39 H21          1.9410    -2.3880    -5.2580 ha         1 I3N       0.101000
     40 H22          0.0460    -2.7970    -3.6910 ha         1 I3N       0.108500
     41 H23         -0.7610    -0.9840    -2.2070 ha         1 I3N       0.129000
@<TRIPOS>BOND
     1     1     2 1   
     2     1    24 1   
     3     1    25 1   
     4     1    26 1   
     5     2     3 1   
     6     3     4 ar  
     7     3     8 ar  
     8     4     5 ar  
     9     4    27 1   
    10     5     6 ar  
    11     5    11 1   
    12     6     7 ar  
    13     6     9 1   
    14     7     8 ar  
    15     7    28 1   
    16     8    29 1   
    17     9    10 1   
    18     9    17 1   
    19    10    11 2   
    20    10    16 1   
    21    11    12 1   
    22    12    13 1   
    23    12    30 1   
    24    12    31 1   
    25    13    14 1   
    26    13    15 1   
    27    16    32 1   
    28    16    33 1   
    29    16    34 1   
    30    17    18 1   
    31    17    35 1   
    32    17    36 1   
    33    18    19 ar  
    34    18    23 ar  
    35    19    20 ar  
    36    19    37 1   
    37    20    21 ar  
    38    20    38 1   
    39    21    22 ar  
    40    21    39 1   
    41    22    23 ar  
    42    22    40 1   
    43    23    41 1   
@<TRIPOS>SUBSTRUCTURE
     1 I3N         1 TEMP              0 ****  ****    0 ROOT
