@<TRIPOS>MOLECULE
I3P
   33    33     1     0     0
SMALL
bcc


@<TRIPOS>ATOM
      1 C1           0.5720     0.0360     1.9410 c6         1 I3P       0.183100
      2 C2           1.9480     0.0090     1.3040 c6         1 I3P       0.115100
      3 C3           1.9080    -0.6940    -0.0490 c6         1 I3P       0.060100
      4 C4           0.9090    -0.0460    -1.0060 c6         1 I3P       0.229100
      5 C5          -0.4850    -0.0130    -0.3570 c6         1 I3P       0.226100
      6 C6          -0.4700     0.6750     1.0160 c6         1 I3P       0.126100
      7 O1           0.6630     0.7210     3.1680 os         1 I3P      -0.594200
      8 O2           2.4360     1.3270     1.1760 oh         1 I3P      -0.585800
      9 O3           3.1950    -0.6570    -0.6370 oh         1 I3P      -0.566800
     10 O4           0.8470    -0.7670    -2.1970 os         1 I3P      -0.552200
     11 O5          -1.3640     0.6540    -1.2100 os         1 I3P      -0.553200
     12 O6          -1.7590     0.6220     1.5640 oh         1 I3P      -0.652800
     13 P1          -0.1330     0.0900     4.5210 p5         1 I3P       1.304900
     14 O11          0.4140    -1.3140     4.7230 o          1 I3P      -0.939167
     15 O12          0.2260     1.1050     5.5910 o          1 I3P      -0.939167
     16 O13         -1.6200     0.1080     4.1030 o          1 I3P      -0.939167
     17 P4           1.4850    -0.1950    -3.6620 p5         1 I3P       1.326900
     18 O41          2.8120    -0.9340    -3.8390 o          1 I3P      -0.960833
     19 O42          0.4280    -0.6300    -4.6720 o          1 I3P      -0.960833
     20 O43          1.6390     1.3170    -3.5060 o          1 I3P      -0.960833
     21 P5          -2.8400     0.0050    -1.7350 p5         1 I3P       1.333900
     22 O51         -2.7310    -1.5110    -1.5670 o          1 I3P      -0.961500
     23 O52         -3.9090     0.6410    -0.8460 o          1 I3P      -0.961500
     24 O53         -2.9100     0.4930    -3.1790 o          1 I3P      -0.961500
     25 H1           0.2850    -1.0160     2.0990 h1         1 I3P       0.023700
     26 H2           2.6070    -0.5730     1.9720 h1         1 I3P      -0.046300
     27 H3           1.5950    -1.7360     0.1240 h1         1 I3P       0.017700
     28 H4           1.2280     0.9860    -1.1970 h1         1 I3P       0.043700
     29 H5          -0.8110    -1.0530    -0.2060 h1         1 I3P       0.027700
     30 H6          -0.1660     1.7260     0.8570 h1         1 I3P       0.001700
     31 HO2          3.1790     1.2870     0.5620 ho         1 I3P       0.357000
     32 HO3          3.7770    -1.2140    -0.1100 ho         1 I3P       0.304000
     33 HO6         -1.7120     0.4560     2.5490 ho         1 I3P       0.455000
@<TRIPOS>BOND
     1     1     2 1   
     2     1     6 1   
     3     1     7 1   
     4     1    25 1   
     5     2     3 1   
     6     2     8 1   
     7     2    26 1   
     8     3     4 1   
     9     3     9 1   
    10     3    27 1   
    11     4     5 1   
    12     4    10 1   
    13     4    28 1   
    14     5     6 1   
    15     5    11 1   
    16     5    29 1   
    17     6    12 1   
    18     6    30 1   
    19     7    13 1   
    20     8    31 1   
    21     9    32 1   
    22    10    17 1   
    23    11    21 1   
    24    12    33 1   
    25    13    14 1   
    26    13    15 1   
    27    13    16 1   
    28    17    18 1   
    29    17    19 1   
    30    17    20 1   
    31    21    22 1   
    32    21    23 1   
    33    21    24 1   
@<TRIPOS>SUBSTRUCTURE
     1 I3P         1 TEMP              0 ****  ****    0 ROOT
