@<TRIPOS>MOLECULE
I3P
   33    33     1     0     0
SMALL
No Charge or Current Charge


@<TRIPOS>ATOM
      1 C1           0.5960     0.1010     1.9550 c6         1 I3P       0.206300
      2 C2           1.9950    -0.1790     1.3100 c6         1 I3P       0.138300
      3 C3           1.8400    -0.9290    -0.0450 c6         1 I3P       0.083300
      4 C4           0.9210    -0.1230    -1.0400 c6         1 I3P       0.252300
      5 C5          -0.5030     0.0750    -0.3810 c6         1 I3P       0.249300
      6 C6          -0.3490     0.8810     0.9700 c6         1 I3P       0.149300
      7 O1           0.7340     0.7660     3.2390 os         1 I3P      -0.617400
      8 O2           2.7770     1.0160     1.1270 oh         1 I3P      -0.648000
      9 O3           3.1470    -1.2390    -0.5780 oh         1 I3P      -0.629000
     10 O4           0.8760    -0.7630    -2.3440 os         1 I3P      -0.575400
     11 O5          -1.4710     0.6970    -1.2730 os         1 I3P      -0.576400
     12 O6          -1.6170     1.2200     1.5840 oh         1 I3P      -0.715000
     13 P1          -0.2050     0.3160     4.4600 p5         1 I3P       1.304900
     14 O11          0.0820    -1.0970     4.8250 o          1 I3P      -0.939167
     15 O12          0.0580     1.1980     5.6280 o          1 I3P      -0.939167
     16 O13         -1.6180     0.4630     4.0280 o          1 I3P      -0.939167
     17 P4           1.4690     0.0090    -3.6340 p5         1 I3P       1.326900
     18 O41          2.9210     0.2940    -3.4690 o          1 I3P      -0.960833
     19 O42          1.2960    -0.8570    -4.8340 o          1 I3P      -0.960833
     20 O43          0.7490     1.2930    -3.8630 o          1 I3P      -0.960833
     21 P5          -2.8130    -0.1050    -1.6820 p5         1 I3P       1.333900
     22 O51         -2.4830    -1.3750    -2.3860 o          1 I3P      -0.961500
     23 O52         -3.6360    -0.4210    -0.4810 o          1 I3P      -0.961500
     24 O53         -3.6240     0.7500    -2.5940 o          1 I3P      -0.961500
     25 H1           0.1330    -0.8820     2.1270 h1         1 I3P       0.023700
     26 H2           2.5450    -0.8460     1.9900 h1         1 I3P      -0.046300
     27 H3           1.3240    -1.8760     0.1700 h1         1 I3P       0.017700
     28 H4           1.3600     0.8790    -1.1620 h1         1 I3P       0.043700
     29 H5          -0.8740    -0.9270    -0.1170 h1         1 I3P       0.027700
     30 H6           0.1590     1.8240     0.7190 h1         1 I3P       0.001700
     31 HO2          3.4860     0.7600     0.4990 ho         1 I3P       0.396000
     32 HO3          3.5330    -1.9300    -0.0010 ho         1 I3P       0.343000
     33 HO6         -1.5660     0.9120     2.5500 ho         1 I3P       0.494000
@<TRIPOS>BOND
     1     1     2 1   
     2     1     6 1   
     3     1     7 1   
     4     1    25 1   
     5     2     3 1   
     6     2     8 1   
     7     2    26 1   
     8     3     4 1   
     9     3     9 1   
    10     3    27 1   
    11     4     5 1   
    12     4    10 1   
    13     4    28 1   
    14     5     6 1   
    15     5    11 1   
    16     5    29 1   
    17     6    12 1   
    18     6    30 1   
    19     7    13 1   
    20     8    31 1   
    21     9    32 1   
    22    10    17 1   
    23    11    21 1   
    24    12    33 1   
    25    13    14 1   
    26    13    15 1   
    27    13    16 1   
    28    17    18 1   
    29    17    19 1   
    30    17    20 1   
    31    21    22 1   
    32    21    23 1   
    33    21    24 1   
@<TRIPOS>SUBSTRUCTURE
     1 I3P         1 TEMP              0 ****  ****    0 ROOT
