@<TRIPOS>MOLECULE
I3R
   40    43     1     0     0
SMALL
bcc


@<TRIPOS>ATOM
      1 C1           7.5070   -14.7090    19.5000 c          1 I3R       0.687100
      2 C2           9.0020   -13.5370    22.3510 ce         1 I3R       0.389900
      3 C3          10.1510   -12.9320    23.0170 ca         1 I3R      -0.122900
      4 C11          6.8170   -16.0630    22.2890 ca         1 I3R      -0.131600
      5 C12          7.7240   -17.0140    21.9010 ca         1 I3R      -0.093000
      6 C13          7.6040   -18.3560    22.3190 ca         1 I3R      -0.115000
      7 C14          6.5770   -18.7500    23.1300 ca         1 I3R      -0.154300
      8 C15          5.7450   -16.4520    23.1320 ca         1 I3R       0.298300
      9 C16          3.8810   -15.9210    24.3120 ca         1 I3R       0.300900
     10 C17          3.7620   -17.2670    24.7310 ca         1 I3R       0.295900
     11 C18          5.6250   -17.7990    23.5530 ca         1 I3R       0.291300
     12 O            6.4150   -15.1610    19.2090 o          1 I3R      -0.561100
     13 C            8.5840   -14.4740    18.4620 c3         1 I3R      -0.021000
     14 N            7.8280   -14.4000    20.7740 n          1 I3R      -0.259800
     15 C10          6.9430   -14.6060    21.9190 c5         1 I3R       0.150000
     16 N3           4.6110   -18.1830    24.3610 nb         1 I3R      -0.621000
     17 N2           4.8480   -15.5240    23.5340 nb         1 I3R      -0.640000
     18 C9           7.6750   -13.8000    23.0060 c5         1 I3R      -0.153700
     19 N1           9.0300   -13.8590    21.1150 n2         1 I3R      -0.432300
     20 C8          10.0400   -12.4870    24.3350 ca         1 I3R      -0.099500
     21 C7          11.1230   -11.8980    24.9720 ca         1 I3R      -0.133500
     22 C6          12.3280   -11.7500    24.3030 ca         1 I3R      -0.112000
     23 C5          12.4490   -12.1950    22.9910 ca         1 I3R      -0.133500
     24 C4          11.3720   -12.7820    22.3510 ca         1 I3R      -0.099500
     25 H11          8.5570   -16.7480    21.2620 ha         1 I3R       0.151000
     26 H12          8.3410   -19.0760    21.9910 ha         1 I3R       0.142000
     27 H13          6.4750   -19.7760    23.4600 ha         1 I3R       0.154000
     28 H15          3.1550   -15.1850    24.6380 h4         1 I3R       0.029100
     29 H16          2.9450   -17.5610    25.3800 h4         1 I3R       0.030100
     30 H1           8.1420   -14.5490    17.4730 h1         1 I3R       0.091700
     31 CL1          9.8290   -15.7560    18.5980 cl         1 I3R      -0.174400
     32 H2           9.0810   -13.5150    18.5750 h1         1 I3R       0.091700
     33 H10          5.9600   -14.1870    21.7070 h1         1 I3R       0.109700
     34 H9           7.1700   -12.8580    23.2330 hc         1 I3R       0.080200
     35 H8           7.7670   -14.3510    23.9420 hc         1 I3R       0.080200
     36 H7           9.1060   -12.5940    24.8720 ha         1 I3R       0.140500
     37 H6          11.0210   -11.5560    25.9940 ha         1 I3R       0.134500
     38 H5          13.1740   -11.2930    24.8010 ha         1 I3R       0.133000
     39 H4          13.3890   -12.0860    22.4660 ha         1 I3R       0.134500
     40 H3          11.4760   -13.1300    21.3320 ha         1 I3R       0.140500
@<TRIPOS>BOND
     1     1    12 2   
     2     1    13 1   
     3     1    14 1   
     4     2     3 1   
     5     2    18 1   
     6     2    19 2   
     7     3    20 ar  
     8     3    24 ar  
     9     4     5 ar  
    10     4     8 ar  
    11     4    15 1   
    12     5     6 ar  
    13     5    25 1   
    14     6     7 ar  
    15     6    26 1   
    16     7    11 ar  
    17     7    27 1   
    18     8    11 ar  
    19     8    17 ar  
    20     9    10 ar  
    21     9    17 ar  
    22     9    28 1   
    23    10    16 ar  
    24    10    29 1   
    25    11    16 ar  
    26    13    30 1   
    27    13    31 1   
    28    13    32 1   
    29    14    15 1   
    30    14    19 1   
    31    15    18 1   
    32    15    33 1   
    33    18    34 1   
    34    18    35 1   
    35    20    21 ar  
    36    20    36 1   
    37    21    22 ar  
    38    21    37 1   
    39    22    23 ar  
    40    22    38 1   
    41    23    24 ar  
    42    23    39 1   
    43    24    40 1   
@<TRIPOS>SUBSTRUCTURE
     1 I3R         1 TEMP              0 ****  ****    0 ROOT
