@<TRIPOS>MOLECULE
I3R
   40    43     1     0     0
SMALL
No Charge or Current Charge


@<TRIPOS>ATOM
      1 C1           7.2390   -14.7640    19.7460 c          1 I3R       0.620100
      2 C2           9.0620   -13.3730    22.4600 ce         1 I3R       0.389900
      3 C3          10.3450   -12.8190    23.0000 ca         1 I3R      -0.122900
      4 C11          6.8070   -15.9130    22.6410 ca         1 I3R      -0.066300
      5 C12          7.9660   -16.7240    22.6030 ca         1 I3R      -0.075000
      6 C13          7.9110   -18.0770    22.9570 ca         1 I3R      -0.097000
      7 C14          6.6970   -18.6480    23.3590 ca         1 I3R      -0.071000
      8 C15          5.5730   -16.4840    23.0580 ca         1 I3R       0.233000
      9 C16          3.3040   -16.3210    23.5240 ca         1 I3R       0.300900
     10 C17          3.2650   -17.6900    23.8730 ca         1 I3R       0.295900
     11 C18          5.5240   -17.8780    23.4200 ca         1 I3R       0.226000
     12 O            6.1260   -15.2660    19.6110 o          1 I3R      -0.561100
     13 C            8.1920   -14.6260    18.5460 c3         1 I3R       0.055600
     14 N            7.6890   -14.2990    21.0130 n          1 I3R      -0.192800
     15 C10          6.8840   -14.4240    22.2390 c5         1 I3R       0.150000
     16 N3           4.3710   -18.4780    23.8250 nb         1 I3R      -0.621000
     17 N2           4.4490   -15.7110    23.1190 nb         1 I3R      -0.640000
     18 C9           7.8080   -13.6870    23.2790 c5         1 I3R      -0.153700
     19 N1           8.8950   -13.7070    21.2260 n2         1 I3R      -0.432300
     20 C8          10.4420   -12.4320    24.3550 ca         1 I3R      -0.081500
     21 C7          11.6440   -11.9090    24.8640 ca         1 I3R      -0.115500
     22 C6          12.7620   -11.7650    24.0270 ca         1 I3R      -0.094000
     23 C5          12.6760   -12.1430    22.6770 ca         1 I3R      -0.115500
     24 C4          11.4760   -12.6660    22.1650 ca         1 I3R      -0.081500
     25 H11          8.9220   -16.3070    22.2960 ha         1 I3R       0.133000
     26 H12          8.8120   -18.6860    22.9190 ha         1 I3R       0.124000
     27 H13          6.6630   -19.6990    23.6320 ha         1 I3R       0.136000
     28 H15          2.4070   -15.7060    23.5710 h4         1 I3R       0.029100
     29 H16          2.3370   -18.1600    24.1950 h4         1 I3R       0.030100
     30 H1           7.5970   -14.6200    17.6260 h1         1 I3R       0.091700
     31 Cl1          9.4020   -15.9930    18.4290 cl         1 I3R      -0.251000
     32 H2           8.7420   -13.6810    18.6200 h1         1 I3R       0.091700
     33 H10          5.9040   -13.9400    22.1290 h1         1 I3R       0.109700
     34 H9           7.3420   -12.7600    23.6290 hc         1 I3R       0.080200
     35 H8           8.0380   -14.2930    24.1620 hc         1 I3R       0.080200
     36 H7           9.5890   -12.5320    25.0220 ha         1 I3R       0.122500
     37 H6          11.7080   -11.6150    25.9090 ha         1 I3R       0.116500
     38 H5          13.6910   -11.3600    24.4220 ha         1 I3R       0.115000
     39 H4          13.5410   -12.0310    22.0270 ha         1 I3R       0.116500
     40 H3          11.4310   -12.9540    21.1170 ha         1 I3R       0.122500
@<TRIPOS>BOND
     1     1    12 2   
     2     1    13 1   
     3     1    14 1   
     4     2     3 1   
     5     2    18 1   
     6     2    19 2   
     7     3    20 ar  
     8     3    24 ar  
     9     4     5 ar  
    10     4     8 ar  
    11     4    15 1   
    12     5     6 ar  
    13     5    25 1   
    14     6     7 ar  
    15     6    26 1   
    16     7    11 ar  
    17     7    27 1   
    18     8    11 ar  
    19     8    17 ar  
    20     9    10 ar  
    21     9    17 ar  
    22     9    28 1   
    23    10    16 ar  
    24    10    29 1   
    25    11    16 ar  
    26    13    30 1   
    27    13    31 1   
    28    13    32 1   
    29    14    15 1   
    30    14    19 1   
    31    15    18 1   
    32    15    33 1   
    33    18    34 1   
    34    18    35 1   
    35    20    21 ar  
    36    20    36 1   
    37    21    22 ar  
    38    21    37 1   
    39    22    23 ar  
    40    22    38 1   
    41    23    24 ar  
    42    23    39 1   
    43    24    40 1   
@<TRIPOS>SUBSTRUCTURE
     1 I3R         1 TEMP              0 ****  ****    0 ROOT
