@<TRIPOS>MOLECULE
I3S
   33    33     1     0     0
SMALL
abcg2


@<TRIPOS>ATOM
      1 O11          2.6110    -3.5270     0.4460 o          1 I3S      -0.958167
      2 P3           1.4500    -2.9220    -0.3360 p5         1 I3S       1.307900
      3 O12          0.1080    -3.6150    -0.0910 o          1 I3S      -0.958167
      4 O10          1.7380    -2.6670    -1.8140 o          1 I3S      -0.958167
      5 O3           1.3200    -1.3960     0.3910 os         1 I3S      -0.548400
      6 C3           0.4690    -0.4390    -0.1610 c6         1 I3S       0.255300
      7 C2          -0.9430    -0.5590     0.4090 c6         1 I3S       0.097300
      8 O2          -0.8960    -0.4690     1.8210 oh         1 I3S      -0.668000
      9 C1          -1.8800     0.5110    -0.1600 c6         1 I3S       0.195300
     10 O1          -3.1190     0.5480     0.4960 os         1 I3S      -0.641400
     11 P1          -4.2900    -0.6620     0.2430 p5         1 I3S       1.302900
     12 OP2         -3.7760    -1.8760     1.0150 o          1 I3S      -0.949833
     13 OP3         -5.5140     0.0010     0.8630 o          1 I3S      -0.949833
     14 OP1         -4.3580    -0.8590    -1.2680 o          1 I3S      -0.949833
     15 C6          -1.2690     1.8960    -0.0180 c6         1 I3S       0.120300
     16 O6          -2.0660     2.8770    -0.6650 oh         1 I3S      -0.718000
     17 C5           0.1300     1.9740    -0.6160 c6         1 I3S       0.122300
     18 O5           0.6470     3.2750    -0.4590 oh         1 I3S      -0.628000
     19 C4           1.0680     0.9610     0.0360 c6         1 I3S       0.257300
     20 O4           2.3280     1.0140    -0.5570 os         1 I3S      -0.578400
     21 P4           3.7030     1.5710     0.2710 p5         1 I3S       1.328900
     22 OP5          4.8080     0.7470    -0.3840 o          1 I3S      -0.962833
     23 OP6          3.7960     3.0630    -0.0390 o          1 I3S      -0.962833
     24 OP4          3.4670     1.2710     1.7490 o          1 I3S      -0.962833
     25 H3           0.3720    -0.5900    -1.2500 h1         1 I3S       0.009700
     26 H2          -1.3250    -1.5420     0.1220 h1         1 I3S       0.109700
     27 HO2         -1.8080    -0.6090     2.1030 ho         1 I3S       0.420000
     28 H1          -2.0120     0.2910    -1.2320 h1         1 I3S       0.027700
     29 H6          -1.1870     2.1230     1.0540 h1         1 I3S       0.027700
     30 HO6         -2.6640     3.2610    -0.0190 ho         1 I3S       0.399000
     31 H5           0.0530     1.7230    -1.6900 h1         1 I3S       0.011700
     32 HO5         -0.0550     3.8750    -0.7360 ho         1 I3S       0.355000
     33 H4           1.1320     1.1770     1.1110 h1         1 I3S       0.045700
@<TRIPOS>BOND
     1     1     2 1   
     2     2     3 1   
     3     2     4 1   
     4     2     5 1   
     5     5     6 1   
     6     6     7 1   
     7     6    19 1   
     8     6    25 1   
     9     7     8 1   
    10     7     9 1   
    11     7    26 1   
    12     8    27 1   
    13     9    10 1   
    14     9    15 1   
    15     9    28 1   
    16    10    11 1   
    17    11    12 1   
    18    11    13 1   
    19    11    14 1   
    20    15    16 1   
    21    15    17 1   
    22    15    29 1   
    23    16    30 1   
    24    17    18 1   
    25    17    19 1   
    26    17    31 1   
    27    18    32 1   
    28    19    20 1   
    29    19    33 1   
    30    20    21 1   
    31    21    22 1   
    32    21    23 1   
    33    21    24 1   
@<TRIPOS>SUBSTRUCTURE
     1 I3S         1 TEMP              0 ****  ****    0 ROOT
