@<TRIPOS>MOLECULE
I3S
   33    33     1     0     0
SMALL
No Charge or Current Charge


@<TRIPOS>ATOM
      1 O11          2.2710    -3.8320     0.3350 o          1 I3S      -0.958167
      2 P3           1.3610    -2.9270    -0.4210 p5         1 I3S       1.307900
      3 O12          0.0080    -3.5440    -0.4640 o          1 I3S      -0.958167
      4 O10          1.8800    -2.7770    -1.8080 o          1 I3S      -0.958167
      5 O3           1.3130    -1.4930     0.3140 os         1 I3S      -0.548400
      6 C3           0.4840    -0.4370    -0.2350 c6         1 I3S       0.255300
      7 C2          -0.9880    -0.5000     0.3250 c6         1 I3S       0.097300
      8 O2          -1.0450    -0.4320     1.7700 oh         1 I3S      -0.668000
      9 C1          -1.8820     0.6130    -0.3320 c6         1 I3S       0.195300
     10 O1          -3.2710     0.6840     0.1140 os         1 I3S      -0.641400
     11 P1          -4.1280    -0.5630     0.6650 p5         1 I3S       1.302900
     12 OP2         -3.5740    -1.0090     1.9720 o          1 I3S      -0.949833
     13 OP3         -5.5340    -0.1170     0.8580 o          1 I3S      -0.949833
     14 OP1         -4.0990    -1.6680    -0.3280 o          1 I3S      -0.949833
     15 C6          -1.2340     2.0190    -0.1320 c6         1 I3S       0.120300
     16 O6          -2.0780     3.0330    -0.7160 oh         1 I3S      -0.718000
     17 C5           0.1960     2.0630    -0.7380 c6         1 I3S       0.122300
     18 O5           0.6980     3.4090    -0.6440 oh         1 I3S      -0.628000
     19 C4           1.1180     0.9930    -0.0450 c6         1 I3S       0.257300
     20 O4           2.4780     1.0700    -0.5590 os         1 I3S      -0.578400
     21 P4           3.6920     1.4730     0.4260 p5         1 I3S       1.328900
     22 OP5          4.9570     1.4760    -0.3620 o          1 I3S      -0.962833
     23 OP6          3.4900     2.8320     0.9990 o          1 I3S      -0.962833
     24 OP4          3.8250     0.4900     1.5360 o          1 I3S      -0.962833
     25 H3           0.4110    -0.5990    -1.3210 h1         1 I3S       0.009700
     26 H2          -1.4020    -1.4620    -0.0050 h1         1 I3S       0.109700
     27 HO2         -2.0100    -0.6350     1.9720 ho         1 I3S       0.420000
     28 H1          -1.9050     0.4090    -1.4130 h1         1 I3S       0.027700
     29 H6          -1.1510     2.2020     0.9500 h1         1 I3S       0.027700
     30 HO6         -2.9890     2.6830    -0.5790 ho         1 I3S       0.399000
     31 H5           0.1140     1.7920    -1.8010 h1         1 I3S       0.011700
     32 HO5         -0.1030     3.9700    -0.7330 ho         1 I3S       0.355000
     33 H4           1.1340     1.2100     1.0340 h1         1 I3S       0.045700
@<TRIPOS>BOND
     1     1     2 1   
     2     2     3 1   
     3     2     4 1   
     4     2     5 1   
     5     5     6 1   
     6     6     7 1   
     7     6    19 1   
     8     6    25 1   
     9     7     8 1   
    10     7     9 1   
    11     7    26 1   
    12     8    27 1   
    13     9    10 1   
    14     9    15 1   
    15     9    28 1   
    16    10    11 1   
    17    11    12 1   
    18    11    13 1   
    19    11    14 1   
    20    15    16 1   
    21    15    17 1   
    22    15    29 1   
    23    16    30 1   
    24    17    18 1   
    25    17    19 1   
    26    17    31 1   
    27    18    32 1   
    28    19    20 1   
    29    19    33 1   
    30    20    21 1   
    31    21    22 1   
    32    21    23 1   
    33    21    24 1   
@<TRIPOS>SUBSTRUCTURE
     1 I3S         1 TEMP              0 ****  ****    0 ROOT
