@<TRIPOS>MOLECULE
I3U
   32    31     1     0     0
SMALL
No Charge or Current Charge


@<TRIPOS>ATOM
      1 C02         62.2970    44.2930   -41.0920 c3         1 I3U       0.143800
      2 C03         62.5600    44.9730   -42.4540 c3         1 I3U      -0.074400
      3 C04         63.1870    44.0390   -43.5170 c3         1 I3U      -0.076400
      4 C05         64.6140    43.5460   -43.1690 c3         1 I3U      -0.090400
      5 C06         65.2730    42.7060   -44.2860 c3         1 I3U       0.105000
      6 C09         63.7150    41.2620   -45.7130 c          1 I3U       0.608100
      7 C11         63.0110    39.8960   -45.8700 c3         1 I3U      -0.121400
      8 C12         62.0750    39.7340   -47.1040 c3         1 I3U      -0.205400
      9 C13         61.4530    38.3290   -47.1190 c          1 I3U       0.717000
     10 N01         61.6370    45.2140   -40.1470 n8         1 I3U      -0.998200
     11 N07         64.5600    41.4410   -44.5800 n          1 I3U      -0.312300
     12 O08         64.7530    40.3790   -43.6180 oh         1 I3U      -0.433100
     13 O10         63.5570    42.1630   -46.5290 o          1 I3U      -0.610100
     14 O14         62.0660    37.4340   -47.6800 o          1 I3U      -0.739500
     15 H1          61.6530    43.4140   -41.2360 h1         1 I3U       0.031700
     16 H2          63.2460    43.9600   -40.6490 h1         1 I3U       0.031700
     17 H3          63.2130    45.8430   -42.3110 hc         1 I3U       0.038700
     18 H4          61.6090    45.3540   -42.8490 hc         1 I3U       0.038700
     19 H5          63.2220    44.5750   -44.4730 hc         1 I3U       0.056200
     20 H6          62.5260    43.1760   -43.6660 hc         1 I3U       0.056200
     21 H7          64.5880    42.9500   -42.2490 hc         1 I3U       0.034700
     22 H8          65.2520    44.4140   -42.9660 hc         1 I3U       0.034700
     23 H9          66.2990    42.4610   -43.9810 h1         1 I3U       0.051200
     24 H10         65.3480    43.3130   -45.1980 h1         1 I3U       0.051200
     25 H11         62.4820    39.6880   -44.9330 hc         1 I3U       0.068700
     26 H12         63.7840    39.1200   -45.8460 hc         1 I3U       0.068700
     27 H13         62.7120    39.8770   -47.9860 hc         1 I3U       0.032200
     28 H14         61.2940    40.4950   -46.9920 hc         1 I3U       0.032200
     29 H16         61.5400    44.7460   -39.2370 hn         1 I3U       0.384000
     30 H17         62.2700    45.9980   -39.9490 hn         1 I3U       0.384000
     31 H19         65.5480    39.8870   -43.9260 ho         1 I3U       0.433000
     32 O1          60.4040    38.1580   -46.5170 o          1 I3U      -0.739500
@<TRIPOS>BOND
     1     1     2 1   
     2     1    10 1   
     3     1    15 1   
     4     1    16 1   
     5     2     3 1   
     6     2    17 1   
     7     2    18 1   
     8     3     4 1   
     9     3    19 1   
    10     3    20 1   
    11     4     5 1   
    12     4    21 1   
    13     4    22 1   
    14     5    11 1   
    15     5    23 1   
    16     5    24 1   
    17     6     7 1   
    18     6    11 1   
    19     6    13 2   
    20     7     8 1   
    21     7    25 1   
    22     7    26 1   
    23     8     9 1   
    24     8    27 1   
    25     8    28 1   
    26     9    14 1   
    27     9    32 1   
    28    10    29 1   
    29    10    30 1   
    30    11    12 1   
    31    12    31 1   
@<TRIPOS>SUBSTRUCTURE
     1 I3U         1 TEMP              0 ****  ****    0 ROOT
