@<TRIPOS>MOLECULE
I3U
   32    31     1     0     0
SMALL
abcg2


@<TRIPOS>ATOM
      1 C02         62.3570    44.2070   -41.0670 c3         1 I3U       0.143800
      2 C03         62.6030    44.9130   -42.3920 c3         1 I3U      -0.074400
      3 C04         63.1530    44.0020   -43.4870 c3         1 I3U      -0.076400
      4 C05         64.5950    43.5640   -43.2550 c3         1 I3U      -0.090400
      5 C06         65.1920    42.7720   -44.4130 c3         1 I3U       0.105000
      6 C09         63.6860    41.2960   -45.7440 c          1 I3U       0.608100
      7 C11         62.9980    39.9480   -45.7660 c3         1 I3U      -0.121400
      8 C12         62.1540    39.7170   -47.0050 c3         1 I3U      -0.205400
      9 C13         61.5210    38.3100   -47.0790 c          1 I3U       0.717000
     10 N01         61.8120    45.1340   -40.0840 n8         1 I3U      -0.998200
     11 N07         64.5030    41.5300   -44.6870 n          1 I3U      -0.312300
     12 O08         64.5300    40.6200   -43.6630 oh         1 I3U      -0.433100
     13 O10         63.5490    42.1340   -46.6250 o          1 I3U      -0.610100
     14 O14         62.0930    37.3900   -46.4590 o          1 I3U      -0.739500
     15 H1          61.6280    43.4070   -41.2250 h1         1 I3U       0.031700
     16 H2          63.2810    43.7160   -40.7300 h1         1 I3U       0.031700
     17 H3          63.2960    45.7480   -42.2360 hc         1 I3U       0.038700
     18 H4          61.6600    45.3550   -42.7250 hc         1 I3U       0.038700
     19 H5          63.0950    44.5250   -44.4460 hc         1 I3U       0.056200
     20 H6          62.5040    43.1240   -43.5800 hc         1 I3U       0.056200
     21 H7          64.6810    42.9840   -42.3330 hc         1 I3U       0.034700
     22 H8          65.2230    44.4490   -43.1140 hc         1 I3U       0.034700
     23 H9          66.2420    42.5460   -44.2080 h1         1 I3U       0.051200
     24 H10         65.1670    43.3630   -45.3270 h1         1 I3U       0.051200
     25 H11         62.3790    39.8560   -44.8680 hc         1 I3U       0.068700
     26 H12         63.7470    39.1590   -45.6750 hc         1 I3U       0.068700
     27 H13         62.7690    39.8490   -47.9030 hc         1 I3U       0.032200
     28 H14         61.3640    40.4680   -47.0790 hc         1 I3U       0.032200
     29 H16         61.6360    44.6420   -39.2170 hn         1 I3U       0.384000
     30 H17         62.5140    45.8290   -39.8610 hn         1 I3U       0.384000
     31 H19         65.3170    40.0750   -43.8030 ho         1 I3U       0.433000
     32 O1          60.4980    38.2060   -47.7860 o          1 I3U      -0.739500
@<TRIPOS>BOND
     1     1     2 1   
     2     1    10 1   
     3     1    15 1   
     4     1    16 1   
     5     2     3 1   
     6     2    17 1   
     7     2    18 1   
     8     3     4 1   
     9     3    19 1   
    10     3    20 1   
    11     4     5 1   
    12     4    21 1   
    13     4    22 1   
    14     5    11 1   
    15     5    23 1   
    16     5    24 1   
    17     6     7 1   
    18     6    11 1   
    19     6    13 2   
    20     7     8 1   
    21     7    25 1   
    22     7    26 1   
    23     8     9 1   
    24     8    27 1   
    25     8    28 1   
    26     9    14 1   
    27     9    32 1   
    28    10    29 1   
    29    10    30 1   
    30    11    12 1   
    31    12    31 1   
@<TRIPOS>SUBSTRUCTURE
     1 I3U         1 TEMP              0 ****  ****    0 ROOT
