@<TRIPOS>MOLECULE
I3V
   17    17     1     0     0
SMALL
abcg2


@<TRIPOS>ATOM
      1 C01         22.1220    43.8930   -12.0100 c3         1 I3V      -0.065900
      2 C02         23.1810    42.8530   -11.9090 cc         1 I3V       0.063400
      3 C03         22.9260    41.5650   -11.5850 cd         1 I3V      -0.091200
      4 C04         24.0290    40.6210   -11.5300 c          1 I3V       0.572200
      5 C07         25.5690    42.4650   -12.0950 c          1 I3V       0.617000
      6 N06         25.2720    41.1550   -11.8090 ns         1 I3V      -0.462500
      7 N09         24.4740    43.2720   -12.1280 ns         1 I3V      -0.515600
      8 N10         21.6290    41.0940   -11.3360 nv         1 I3V      -0.882000
      9 O05         23.9050    39.4350   -11.2740 o          1 I3V      -0.539000
     10 O08         26.7030    42.8550   -12.3000 o          1 I3V      -0.557000
     11 H1          21.1700    43.4400   -12.2800 hc         1 I3V       0.062367
     12 H2          21.9840    44.4050   -11.0550 hc         1 I3V       0.062367
     13 H3          22.3730    44.6480   -12.7550 hc         1 I3V       0.062367
     14 H4          26.0590    40.5190   -11.7740 hn         1 I3V       0.345500
     15 H5          24.6410    44.2460   -12.3390 hn         1 I3V       0.461000
     16 H6          21.6290    40.0940   -11.1930 hn         1 I3V       0.434000
     17 H7          21.2020    41.5280   -10.5300 hn         1 I3V       0.434000
@<TRIPOS>BOND
     1     1     2 1   
     2     1    11 1   
     3     1    12 1   
     4     1    13 1   
     5     2     3 2   
     6     2     7 1   
     7     3     4 1   
     8     3     8 1   
     9     4     6 1   
    10     4     9 2   
    11     5     6 1   
    12     5     7 1   
    13     5    10 2   
    14     6    14 1   
    15     7    15 1   
    16     8    16 1   
    17     8    17 1   
@<TRIPOS>SUBSTRUCTURE
     1 I3V         1 TEMP              0 ****  ****    0 ROOT
