@<TRIPOS>MOLECULE
I3V
   17    17     1     0     0
SMALL
No Charge or Current Charge


@<TRIPOS>ATOM
      1 C01         22.1270    43.9520   -11.9390 c3         1 I3V      -0.065900
      2 C02         23.1650    42.8600   -11.8600 cc         1 I3V       0.063400
      3 C03         22.9510    41.5480   -11.4840 cd         1 I3V      -0.091200
      4 C04         24.1190    40.5870   -11.4640 c          1 I3V       0.572200
      5 C07         25.5480    42.4300   -12.2080 c          1 I3V       0.617000
      6 N06         25.3060    41.1480   -11.8350 ns         1 I3V      -0.462500
      7 N09         24.4510    43.2400   -12.2030 ns         1 I3V      -0.515600
      8 N10         21.7130    41.0220   -11.1120 nv         1 I3V      -0.882000
      9 O05         24.0470    39.4060   -11.1490 o          1 I3V      -0.539000
     10 O08         26.6530    42.8280   -12.5210 o          1 I3V      -0.557000
     11 H1          21.3350    43.6820   -12.6470 hc         1 I3V       0.062367
     12 H2          21.6610    44.1130   -10.9590 hc         1 I3V       0.062367
     13 H3          22.5510    44.9090   -12.2650 hc         1 I3V       0.062367
     14 H4          26.1040    40.5340   -11.8310 hn         1 I3V       0.345500
     15 H5          24.6430    44.1960   -12.4840 hn         1 I3V       0.461000
     16 H6          21.6240    40.0390   -10.8450 hn         1 I3V       0.434000
     17 H7          20.8690    41.5950   -11.0960 hn         1 I3V       0.434000
@<TRIPOS>BOND
     1     1     2 1   
     2     1    11 1   
     3     1    12 1   
     4     1    13 1   
     5     2     3 2   
     6     2     7 1   
     7     3     4 1   
     8     3     8 1   
     9     4     6 1   
    10     4     9 2   
    11     5     6 1   
    12     5     7 1   
    13     5    10 2   
    14     6    14 1   
    15     7    15 1   
    16     8    16 1   
    17     8    17 1   
@<TRIPOS>SUBSTRUCTURE
     1 I3V         1 TEMP              0 ****  ****    0 ROOT
