@<TRIPOS>MOLECULE
I40
   42    45     1     0     0
SMALL
No Charge or Current Charge


@<TRIPOS>ATOM
      1 C1           3.2470    -0.1970    -4.4670 c6         1 I40      -0.132700
      2 C2           4.1610     0.2850    -3.3190 c6         1 I40      -0.074400
      3 C3           3.7100    -0.3420    -1.9870 c6         1 I40      -0.078400
      4 C4           2.2700     0.0930    -1.6310 c6         1 I40      -0.018100
      5 C5          -0.1130     0.1280    -2.6230 ca         1 I40       0.269000
      6 C6          -2.3730     0.2290    -3.6280 ca         1 I40      -0.102000
      7 C7          -3.1930     0.2140    -4.7670 ca         1 I40      -0.107000
      8 C8          -2.6200     0.0920    -6.0400 ca         1 I40      -0.104000
      9 C9          -1.2260    -0.0170    -6.1700 ca         1 I40      -0.081000
     10 N1           0.9470    -0.1080    -5.2190 nb         1 I40      -0.681000
     11 C10          1.7550    -0.0890    -4.1390 ca         1 I40       0.385300
     12 C11          1.2810     0.0180    -2.8140 ca         1 I40      -0.112300
     13 C12         -0.9650     0.1230    -3.7530 ca         1 I40      -0.109000
     14 C13         -0.3860    -0.0030    -5.0410 ca         1 I40       0.283000
     15 N2          -0.6450     0.2670    -1.3330 nu         1 I40      -0.911200
     16 I1           0.4580     1.4960     4.4800 i          1 I40      -0.314000
     17 C14         -0.9170    -0.8700    -0.4460 c3         1 I40       0.220100
     18 C15         -1.4120    -0.3660     0.9000 ca         1 I40      -0.097300
     19 C16         -0.5000     0.1820     1.8250 ca         1 I40      -0.054000
     20 C17         -0.9520     0.6530     3.0680 ca         1 I40       0.193000
     21 C18         -2.3150     0.5810     3.3980 ca         1 I40      -0.075000
     22 C19         -3.2300     0.0360     2.4800 ca         1 I40      -0.114000
     23 C20         -2.7800    -0.4350     1.2330 ca         1 I40      -0.091000
     24 H12          3.4780    -1.2450    -4.6990 hc         1 I40       0.062700
     25 H11          3.4770     0.3760    -5.3760 hc         1 I40       0.062700
     26 H22          5.2050     0.0170    -3.5320 hc         1 I40       0.046700
     27 H21          4.1250     1.3810    -3.2450 hc         1 I40       0.046700
     28 H32          3.7590    -1.4380    -2.0590 hc         1 I40       0.042700
     29 H31          4.3970    -0.0520    -1.1790 hc         1 I40       0.042700
     30 H42          2.2890     1.1260    -1.2580 hc         1 I40       0.054700
     31 H41          1.9240    -0.5230    -0.7930 hc         1 I40       0.054700
     32 H6          -2.8480     0.3190    -2.6540 ha         1 I40       0.106000
     33 H7          -4.2730     0.2960    -4.6620 ha         1 I40       0.114000
     34 H8          -3.2530     0.0790    -6.9250 ha         1 I40       0.117000
     35 H9          -0.7880    -0.1120    -7.1600 ha         1 I40       0.131000
     36 H2N1        -1.3690     0.9830    -1.2850 hn         1 I40       0.437000
     37 H142        -0.0130    -1.4740    -0.2960 h1         1 I40       0.047200
     38 H141        -1.6750    -1.5250    -0.8990 h1         1 I40       0.047200
     39 H16          0.5560     0.2470     1.5780 ha         1 I40       0.133000
     40 H18         -2.6590     0.9470     4.3620 ha         1 I40       0.128000
     41 H19         -4.2870    -0.0190     2.7330 ha         1 I40       0.118000
     42 H20         -3.4940    -0.8520     0.5270 ha         1 I40       0.114000
@<TRIPOS>BOND
     1     1     2 1   
     2     1    11 1   
     3     1    24 1   
     4     1    25 1   
     5     2     3 1   
     6     2    26 1   
     7     2    27 1   
     8     3     4 1   
     9     3    28 1   
    10     3    29 1   
    11     4    12 1   
    12     4    30 1   
    13     4    31 1   
    14     5    12 ar  
    15     5    13 ar  
    16     5    15 1   
    17     6     7 ar  
    18     6    13 ar  
    19     6    32 1   
    20     7     8 ar  
    21     7    33 1   
    22     8     9 ar  
    23     8    34 1   
    24     9    14 ar  
    25     9    35 1   
    26    10    11 ar  
    27    10    14 ar  
    28    11    12 ar  
    29    13    14 ar  
    30    15    17 1   
    31    15    36 1   
    32    16    20 1   
    33    17    18 1   
    34    17    37 1   
    35    17    38 1   
    36    18    19 ar  
    37    18    23 ar  
    38    19    20 ar  
    39    19    39 1   
    40    20    21 ar  
    41    21    22 ar  
    42    21    40 1   
    43    22    23 ar  
    44    22    41 1   
    45    23    42 1   
@<TRIPOS>SUBSTRUCTURE
     1 I40         1 TEMP              0 ****  ****    0 ROOT
