@<TRIPOS>MOLECULE
I40
   42    45     1     0     0
SMALL
bcc


@<TRIPOS>ATOM
      1 C1           3.1900    -0.3580    -4.3400 c6         1 I40      -0.132700
      2 C2           4.0570     0.2520    -3.2510 c6         1 I40      -0.074400
      3 C3           3.5950    -0.2590    -1.8970 c6         1 I40      -0.078400
      4 C4           2.1640     0.1750    -1.6050 c6         1 I40      -0.018100
      5 C5          -0.1340     0.2290    -2.6190 ca         1 I40       0.130600
      6 C6          -2.3930     0.3160    -3.6890 ca         1 I40      -0.120000
      7 C7          -3.1540     0.2730    -4.8260 ca         1 I40      -0.125000
      8 C8          -2.5460     0.0960    -6.0850 ca         1 I40      -0.122000
      9 C9          -1.1890    -0.0490    -6.1790 ca         1 I40      -0.164300
     10 N1           0.9520    -0.1840    -5.1610 nb         1 I40      -0.681000
     11 C10          1.7180    -0.1600    -4.0980 ca         1 I40       0.450600
     12 C11          1.2250     0.0510    -2.7800 ca         1 I40      -0.177600
     13 C12         -0.9860     0.1830    -3.7570 ca         1 I40      -0.174300
     14 C13         -0.3790    -0.0170    -5.0200 ca         1 I40       0.413600
     15 N2          -0.6540     0.4660    -1.3350 nu         1 I40      -0.717600
     16 I1           0.5520     1.4440     4.3220 i          1 I40      -0.176900
     17 C14         -0.9210    -0.7340    -0.5390 c3         1 I40       0.220100
     18 C15         -1.3580    -0.3410     0.8440 ca         1 I40      -0.097300
     19 C16         -0.4380     0.2230     1.7260 ca         1 I40      -0.072000
     20 C17         -0.8490     0.6010     2.9940 ca         1 I40       0.055900
     21 C18         -2.1650     0.4380     3.4070 ca         1 I40      -0.093000
     22 C19         -3.0760    -0.1180     2.5220 ca         1 I40      -0.132000
     23 C20         -2.6770    -0.5030     1.2480 ca         1 I40      -0.109000
     24 H12          3.3860    -1.4360    -4.3920 hc         1 I40       0.062700
     25 H11          3.4380     0.0440    -5.3240 hc         1 I40       0.062700
     26 H22          5.1040     0.0020    -3.4260 hc         1 I40       0.046700
     27 H21          3.9830     1.3440    -3.2820 hc         1 I40       0.046700
     28 H32          3.6640    -1.3510    -1.8830 hc         1 I40       0.042700
     29 H31          4.2460     0.1020    -1.0990 hc         1 I40       0.042700
     30 H42          2.1590     1.2220    -1.2830 hc         1 I40       0.054700
     31 H41          1.7920    -0.3870    -0.7470 hc         1 I40       0.054700
     32 H6          -2.8870     0.4470    -2.7350 ha         1 I40       0.124000
     33 H7          -4.2290     0.3720    -4.7590 ha         1 I40       0.132000
     34 H8          -3.1590     0.0690    -6.9760 ha         1 I40       0.135000
     35 H9          -0.7060    -0.1960    -7.1380 ha         1 I40       0.149000
     36 H2N1        -1.4880     1.0380    -1.3730 hn         1 I40       0.381800
     37 H142        -0.0050    -1.3250    -0.4880 h1         1 I40       0.047200
     38 H141        -1.6810    -1.3780    -0.9990 h1         1 I40       0.047200
     39 H16          0.5900     0.3530     1.4130 ha         1 I40       0.151000
     40 H18         -2.4830     0.7370     4.3970 ha         1 I40       0.146000
     41 H19         -4.1060    -0.2470     2.8300 ha         1 I40       0.136000
     42 H20         -3.3990    -0.9330     0.5650 ha         1 I40       0.132000
@<TRIPOS>BOND
     1     1     2 1   
     2     1    11 1   
     3     1    24 1   
     4     1    25 1   
     5     2     3 1   
     6     2    26 1   
     7     2    27 1   
     8     3     4 1   
     9     3    28 1   
    10     3    29 1   
    11     4    12 1   
    12     4    30 1   
    13     4    31 1   
    14     5    12 ar  
    15     5    13 ar  
    16     5    15 1   
    17     6     7 ar  
    18     6    13 ar  
    19     6    32 1   
    20     7     8 ar  
    21     7    33 1   
    22     8     9 ar  
    23     8    34 1   
    24     9    14 ar  
    25     9    35 1   
    26    10    11 ar  
    27    10    14 ar  
    28    11    12 ar  
    29    13    14 ar  
    30    15    17 1   
    31    15    36 1   
    32    16    20 1   
    33    17    18 1   
    34    17    37 1   
    35    17    38 1   
    36    18    19 ar  
    37    18    23 ar  
    38    19    20 ar  
    39    19    39 1   
    40    20    21 ar  
    41    21    22 ar  
    42    21    40 1   
    43    22    23 ar  
    44    22    41 1   
    45    23    42 1   
@<TRIPOS>SUBSTRUCTURE
     1 I40         1 TEMP              0 ****  ****    0 ROOT
