@<TRIPOS>MOLECULE
I41
   48    49     1     0     0
SMALL
No Charge or Current Charge


@<TRIPOS>ATOM
      1 O04          1.8410     2.7010     0.6800 o          1 I41      -0.438000
      2 C03          2.7920     1.9520     0.8710 c          1 I41       0.567100
      3 O02          3.9220     2.3100     1.5660 os         1 I41      -0.455100
      4 C01          4.0140     3.6580     2.0620 c3         1 I41       0.153900
      5 C05          2.8400     0.4640     0.4290 c3         1 I41       0.070700
      6 C06          3.9170     0.2250    -0.6580 c3         1 I41      -0.015100
      7 C07          4.0090    -1.2110    -1.1090 cc         1 I41      -0.202300
      8 C08          3.5820    -1.7900    -2.2790 cd         1 I41       0.239900
      9 N09          3.8550    -3.1440    -2.2750 nd         1 I41      -0.673000
     10 C10          4.4420    -3.3940    -1.1140 cc         1 I41       0.383400
     11 N11          4.5590    -2.2420    -0.3770 na         1 I41      -0.297500
     12 N12          1.5100    -0.0040    -0.0220 ns         1 I41      -0.504900
     13 C13          0.8980    -1.1760     0.3730 c          1 I41       0.597100
     14 O14          1.3970    -1.9140     1.2170 o          1 I41      -0.611100
     15 C15         -0.4610    -1.4890    -0.3310 c3         1 I41       0.155800
     16 N16         -1.7050    -0.7840     0.1480 n3         1 I41      -0.761600
     17 C17         -1.6210     0.7220     0.0660 c3         1 I41       0.033800
     18 C18         -1.3910     1.3950    -1.3350 c          1 I41       0.693000
     19 O19         -2.3510     1.8800    -1.9200 o          1 I41      -0.740500
     20 O20         -0.2570     1.3950    -1.7960 o          1 I41      -0.740500
     21 C21         -2.9340    -1.3320    -0.4860 c3         1 I41       0.260100
     22 C22         -4.2290    -0.8640     0.1780 ca         1 I41      -0.063300
     23 C23         -5.1230    -0.0180    -0.5110 ca         1 I41      -0.098000
     24 C24         -6.3160     0.4040     0.1030 ca         1 I41      -0.126000
     25 C25         -6.6230    -0.0170     1.4080 ca         1 I41      -0.132000
     26 C26         -5.7370    -0.8590     2.1000 ca         1 I41      -0.126000
     27 C27         -4.5440    -1.2810     1.4870 ca         1 I41      -0.098000
     28 H05          3.1320    -0.1040     1.3220 h1         1 I41       0.072700
     29 H011         3.9680     4.3830     1.2390 h1         1 I41       0.043700
     30 H012         3.1980     3.8740     2.7630 h1         1 I41       0.043700
     31 H013         4.9640     3.8060     2.5910 h1         1 I41       0.043700
     32 H061         3.6980     0.8670    -1.5210 hc         1 I41       0.068700
     33 H062         4.8930     0.5500    -0.2760 hc         1 I41       0.068700
     34 H12          0.9940     0.5650    -0.6960 hn         1 I41       0.336500
     35 H08          3.0920    -1.3090    -3.1180 h4         1 I41       0.043100
     36 H11          4.9710    -2.1840     0.5470 hn         1 I41       0.350000
     37 H10          4.7970    -4.3550    -0.7600 h5         1 I41       0.049100
     38 H151        -0.3130    -1.2970    -1.4020 h1         1 I41       0.048700
     39 H152        -0.6010    -2.5740    -0.2330 h1         1 I41       0.048700
     40 H171        -2.5370     1.1640     0.4810 h1         1 I41       0.043700
     41 H172        -0.8130     1.0780     0.7180 h1         1 I41       0.043700
     42 H211        -2.9580    -1.0710    -1.5530 h1         1 I41       0.041700
     43 H212        -2.9200    -2.4300    -0.4340 h1         1 I41       0.041700
     44 H23         -4.8920     0.3150    -1.5200 ha         1 I41       0.127000
     45 H27         -3.8590    -1.9300     2.0270 ha         1 I41       0.127000
     46 H24         -7.0010     1.0570    -0.4330 ha         1 I41       0.096000
     47 H25         -7.5460     0.3100     1.8820 ha         1 I41       0.092000
     48 H26         -5.9720    -1.1840     3.1110 ha         1 I41       0.096000
@<TRIPOS>BOND
     1     1     2 2   
     2     2     3 1   
     3     2     5 1   
     4     3     4 1   
     5     4    29 1   
     6     4    30 1   
     7     4    31 1   
     8     5     6 1   
     9     5    12 1   
    10     5    28 1   
    11     6     7 1   
    12     6    32 1   
    13     6    33 1   
    14     7     8 2   
    15     7    11 1   
    16     8     9 1   
    17     8    35 1   
    18     9    10 2   
    19    10    11 1   
    20    10    37 1   
    21    11    36 1   
    22    12    13 1   
    23    12    34 1   
    24    13    14 2   
    25    13    15 1   
    26    15    16 1   
    27    15    38 1   
    28    15    39 1   
    29    16    17 1   
    30    16    21 1   
    31    17    18 1   
    32    17    40 1   
    33    17    41 1   
    34    18    19 1   
    35    18    20 1   
    36    21    22 1   
    37    21    42 1   
    38    21    43 1   
    39    22    23 ar  
    40    22    27 ar  
    41    23    24 ar  
    42    23    44 1   
    43    24    25 ar  
    44    24    46 1   
    45    25    26 ar  
    46    25    47 1   
    47    26    27 ar  
    48    26    48 1   
    49    27    45 1   
@<TRIPOS>SUBSTRUCTURE
     1 I41         1 TEMP              0 ****  ****    0 ROOT
