@<TRIPOS>MOLECULE
I41
   48    49     1     0     0
SMALL
bcc


@<TRIPOS>ATOM
      1 O04          1.8300     2.2890     0.5310 o          1 I41      -0.487000
      2 C03          2.5340     1.4570     1.0380 c          1 I41       0.616100
      3 O02          3.2270     1.6370     2.1500 os         1 I41      -0.431900
      4 C01          3.1470     2.9200     2.7740 c3         1 I41       0.130700
      5 C05          2.8020     0.0780     0.4470 c3         1 I41       0.070700
      6 C06          4.0850     0.1410    -0.4020 c3         1 I41      -0.015100
      7 C07          4.4050    -1.1610    -1.0420 cc         1 I41      -0.216900
      8 C08          4.3870    -1.5560    -2.3520 cd         1 I41       0.305200
      9 N09          4.7290    -2.8740    -2.4630 nd         1 I41      -0.673000
     10 C10          4.9500    -3.2780    -1.2400 cc         1 I41       0.383400
     11 N11          4.7670    -2.2820    -0.3490 na         1 I41      -0.297900
     12 N12          1.6950    -0.3450    -0.3590 ns         1 I41      -0.571900
     13 C13          0.4800    -0.5500     0.1830 c          1 I41       0.664100
     14 O14          0.2830    -0.4290     1.3820 o          1 I41      -0.611100
     15 C15         -0.6030    -0.9770    -0.7990 c3         1 I41       0.155800
     16 N16         -1.8350    -0.3110    -0.5050 n3         1 I41      -0.761600
     17 C17         -1.8670     1.0850    -0.8630 c3         1 I41       0.033800
     18 C18         -1.9170     1.4480    -2.3660 c          1 I41       0.903600
     19 O19         -1.9690     2.6720    -2.6050 o          1 I41      -0.845800
     20 O20         -1.9000     0.5250    -3.2030 o          1 I41      -0.845800
     21 C21         -3.0610    -1.0290    -0.7400 c3         1 I41       0.260100
     22 C22         -4.1200    -0.6920     0.2860 ca         1 I41      -0.063300
     23 C23         -5.4680    -0.6890    -0.0590 ca         1 I41      -0.116000
     24 C24         -6.4470    -0.4270     0.8920 ca         1 I41      -0.144000
     25 C25         -6.0850    -0.1540     2.2040 ca         1 I41      -0.150000
     26 C26         -4.7410    -0.1470     2.5560 ca         1 I41      -0.144000
     27 C27         -3.7670    -0.4130     1.6050 ca         1 I41      -0.116000
     28 H05          2.9540    -0.6270     1.2690 h1         1 I41       0.072700
     29 H011         3.5200     3.7040     2.1160 h1         1 I41       0.043700
     30 H012         2.1260     3.1530     3.0710 h1         1 I41       0.043700
     31 H013         3.7760     2.8610     3.6570 h1         1 I41       0.043700
     32 H061         3.9700     0.8930    -1.1850 hc         1 I41       0.068700
     33 H062         4.9080     0.4720     0.2350 hc         1 I41       0.068700
     34 H12          1.8000    -0.3720    -1.3600 hn         1 I41       0.336500
     35 H08          4.1470    -0.9490    -3.2130 h4         1 I41       0.043100
     36 H11          4.8900    -2.3590     0.6480 hn         1 I41       0.299700
     37 H10          5.2460    -4.2710    -0.9390 h5         1 I41       0.049100
     38 H151        -0.2580    -0.8390    -1.8320 h1         1 I41       0.048700
     39 H152        -0.7300    -2.0550    -0.6610 h1         1 I41       0.048700
     40 H171        -2.7300     1.5500    -0.3720 h1         1 I41       0.043700
     41 H172        -0.9950     1.5860    -0.4260 h1         1 I41       0.043700
     42 H211        -3.4670    -0.8710    -1.7470 h1         1 I41       0.041700
     43 H212        -2.8520    -2.1000    -0.6670 h1         1 I41       0.041700
     44 H23         -5.7580    -0.8940    -1.0830 ha         1 I41       0.145000
     45 H27         -2.7160    -0.3960     1.8690 ha         1 I41       0.145000
     46 H24         -7.4910    -0.4280     0.6060 ha         1 I41       0.114000
     47 H25         -6.8450     0.0560     2.9470 ha         1 I41       0.110000
     48 H26         -4.4510     0.0700     3.5770 ha         1 I41       0.114000
@<TRIPOS>BOND
     1     1     2 2   
     2     2     3 1   
     3     2     5 1   
     4     3     4 1   
     5     4    29 1   
     6     4    30 1   
     7     4    31 1   
     8     5     6 1   
     9     5    12 1   
    10     5    28 1   
    11     6     7 1   
    12     6    32 1   
    13     6    33 1   
    14     7     8 2   
    15     7    11 1   
    16     8     9 1   
    17     8    35 1   
    18     9    10 2   
    19    10    11 1   
    20    10    37 1   
    21    11    36 1   
    22    12    13 1   
    23    12    34 1   
    24    13    14 2   
    25    13    15 1   
    26    15    16 1   
    27    15    38 1   
    28    15    39 1   
    29    16    17 1   
    30    16    21 1   
    31    17    18 1   
    32    17    40 1   
    33    17    41 1   
    34    18    19 1   
    35    18    20 1   
    36    21    22 1   
    37    21    42 1   
    38    21    43 1   
    39    22    23 ar  
    40    22    27 ar  
    41    23    24 ar  
    42    23    44 1   
    43    24    25 ar  
    44    24    46 1   
    45    25    26 ar  
    46    25    47 1   
    47    26    27 ar  
    48    26    48 1   
    49    27    45 1   
@<TRIPOS>SUBSTRUCTURE
     1 I41         1 TEMP              0 ****  ****    0 ROOT
