@<TRIPOS>MOLECULE
I43
   33    33     1     0     0
SMALL
abcg2


@<TRIPOS>ATOM
      1 N1          -0.4370     1.4620    -0.8100 n          1 I43      -0.308000
      2 C01          0.4130     2.5850    -1.1830 c3         1 I43       0.078300
      3 O1          -2.2430     2.7880    -1.1400 o          1 I43      -0.540000
      4 O2          -2.9130    -1.4330     0.3300 os         1 I43      -0.416600
      5 C02         -4.3110    -1.1750     0.4180 c3         1 I43       0.156900
      6 N2          -2.6180     0.6950    -0.3790 nc         1 I43      -0.766100
      7 C1          -1.8090     1.6990    -0.7950 c          1 I43       0.707400
      8 C2          -2.1150    -0.4620    -0.0740 cd         1 I43       0.754900
      9 C3          -0.7330    -0.7960    -0.1450 cd         1 I43      -0.323800
     10 C4          -0.2760    -2.1880     0.1680 c3         1 I43      -0.018900
     11 C5           0.0880     0.2330    -0.5140 cc         1 I43       0.142600
     12 C11          1.5410     0.0700    -0.6870 ce         1 I43      -0.190000
     13 C12          2.4120    -0.1940     0.2860 c2         1 I43      -0.080400
     14 C13          2.0380    -0.2650     1.7380 c3         1 I43       0.191800
     15 C14          3.8750    -0.3770     0.0090 c3         1 I43       0.191800
     16 O3           2.4930    -1.4900     2.2680 oh         1 I43      -0.661500
     17 O4           4.1660    -0.1390    -1.3410 oh         1 I43      -0.661500
     18 H1           1.4320     2.4000    -0.8620 h1         1 I43       0.057033
     19 H2           0.4050     2.7410    -2.2620 h1         1 I43       0.057033
     20 H3           0.0590     3.4890    -0.6970 h1         1 I43       0.057033
     21 H4          -4.5260    -0.3870     1.1390 h1         1 I43       0.052700
     22 H5          -4.7280    -0.8920    -0.5480 h1         1 I43       0.052700
     23 H6          -4.7620    -2.1050     0.7510 h1         1 I43       0.052700
     24 H7          -0.8620    -2.9260    -0.3800 hc         1 I43       0.047033
     25 H8           0.7680    -2.3310    -0.0940 hc         1 I43       0.047033
     26 H9          -0.3800    -2.4140     1.2300 hc         1 I43       0.047033
     27 H10          1.8970     0.1940    -1.7040 ha         1 I43       0.218000
     28 H13          2.5130     0.5870     2.2450 h1         1 I43       0.038200
     29 H14          0.9580    -0.1410     1.8630 h1         1 I43       0.038200
     30 H15          4.4320     0.3010     0.6730 h1         1 I43       0.038200
     31 H16          4.1550    -1.3940     0.3110 h1         1 I43       0.038200
     32 H17          2.3800    -1.4600     3.2230 ho         1 I43       0.451000
     33 H18          5.0900    -0.3570    -1.4910 ho         1 I43       0.451000
@<TRIPOS>BOND
     1     1     2 1   
     2     1     7 1   
     3     1    11 1   
     4     2    18 1   
     5     2    19 1   
     6     2    20 1   
     7     3     7 2   
     8     4     5 1   
     9     4     8 1   
    10     5    21 1   
    11     5    22 1   
    12     5    23 1   
    13     6     7 1   
    14     6     8 2   
    15     8     9 1   
    16     9    10 1   
    17     9    11 2   
    18    10    24 1   
    19    10    25 1   
    20    10    26 1   
    21    11    12 1   
    22    12    13 2   
    23    12    27 1   
    24    13    14 1   
    25    13    15 1   
    26    14    16 1   
    27    14    28 1   
    28    14    29 1   
    29    15    17 1   
    30    15    30 1   
    31    15    31 1   
    32    16    32 1   
    33    17    33 1   
@<TRIPOS>SUBSTRUCTURE
     1 I43         1 TEMP              0 ****  ****    0 ROOT
