@<TRIPOS>MOLECULE
I43
   33    33     1     0     0
SMALL
No Charge or Current Charge


@<TRIPOS>ATOM
      1 N1          -0.4110     1.3960    -0.8970 n          1 I43      -0.308000
      2 C01          0.5030     2.4810    -1.3540 c3         1 I43       0.078300
      3 O1          -2.2550     2.7710    -1.0750 o          1 I43      -0.540000
      4 O2          -3.0440    -1.4360     0.4140 os         1 I43      -0.416600
      5 C02         -4.4470    -1.1350     0.5530 c3         1 I43       0.156900
      6 N2          -2.6180     0.7060    -0.3370 nc         1 I43      -0.766100
      7 C1          -1.7850     1.6830    -0.7860 c          1 I43       0.707400
      8 C2          -2.1590    -0.4860    -0.0290 cd         1 I43       0.754900
      9 C3          -0.7790    -0.8630    -0.1380 cd         1 I43      -0.323800
     10 C4          -0.3290    -2.2740     0.2010 c3         1 I43      -0.018900
     11 C5           0.0810     0.1280    -0.5730 cc         1 I43       0.142600
     12 C11          1.5190    -0.0590    -0.7590 ce         1 I43      -0.190000
     13 C12          2.4430    -0.2250     0.2200 c2         1 I43      -0.080400
     14 C13          2.1310    -0.2360     1.7110 c3         1 I43       0.191800
     15 C14          3.9260    -0.3820    -0.0760 c3         1 I43       0.191800
     16 O3           2.3430    -1.5440     2.2570 oh         1 I43      -0.661500
     17 O4           4.4160     0.7760    -0.7660 oh         1 I43      -0.661500
     18 H1           1.3910     2.5210    -0.7110 h1         1 I43       0.057033
     19 H2           0.8170     2.2860    -2.3870 h1         1 I43       0.057033
     20 H3           0.0230     3.4660    -1.3130 h1         1 I43       0.057033
     21 H4          -4.6050    -0.3180     1.2700 h1         1 I43       0.052700
     22 H5          -4.8850    -0.8440    -0.4110 h1         1 I43       0.052700
     23 H6          -4.9910    -2.0140     0.9190 h1         1 I43       0.052700
     24 H7          -1.0020    -3.0210    -0.2370 hc         1 I43       0.047033
     25 H8           0.6760    -2.4970    -0.1760 hc         1 I43       0.047033
     26 H9          -0.3210    -2.4320     1.2860 hc         1 I43       0.047033
     27 H10          1.8430    -0.0230    -1.8000 ha         1 I43       0.218000
     28 H13          2.7730     0.4970     2.2190 h1         1 I43       0.038200
     29 H14          1.0930     0.0800     1.8800 h1         1 I43       0.038200
     30 H15          4.4910    -0.5330     0.8540 h1         1 I43       0.038200
     31 H16          4.0730    -1.2810    -0.6910 h1         1 I43       0.038200
     32 H17          2.1220    -1.4930     3.2130 ho         1 I43       0.451000
     33 H18          5.3710     0.6220    -0.9370 ho         1 I43       0.451000
@<TRIPOS>BOND
     1     1     2 1   
     2     1     7 1   
     3     1    11 1   
     4     2    18 1   
     5     2    19 1   
     6     2    20 1   
     7     3     7 2   
     8     4     5 1   
     9     4     8 1   
    10     5    21 1   
    11     5    22 1   
    12     5    23 1   
    13     6     7 1   
    14     6     8 2   
    15     8     9 1   
    16     9    10 1   
    17     9    11 2   
    18    10    24 1   
    19    10    25 1   
    20    10    26 1   
    21    11    12 1   
    22    12    13 2   
    23    12    27 1   
    24    13    14 1   
    25    13    15 1   
    26    14    16 1   
    27    14    28 1   
    28    14    29 1   
    29    15    17 1   
    30    15    30 1   
    31    15    31 1   
    32    16    32 1   
    33    17    33 1   
@<TRIPOS>SUBSTRUCTURE
     1 I43         1 TEMP              0 ****  ****    0 ROOT
