@<TRIPOS>MOLECULE
I45
   49    51     1     0     0
SMALL
bcc


@<TRIPOS>ATOM
      1 C1           4.4920     0.7170     0.7110 ca         1 I45      -0.152300
      2 C2           5.4470     1.6120     1.1710 ca         1 I45       0.162900
      3 C3           6.7810     1.2970     1.3150 ca         1 I45      -0.215000
      4 C4           7.1640     0.0120     0.9780 ca         1 I45       0.169900
      5 C5           6.2640    -0.9250     0.5150 ca         1 I45      -0.188000
      6 C6           4.9300    -0.5620     0.3860 ca         1 I45      -0.047000
      7 C7           3.0640     1.1710     0.6020 c3         1 I45       0.200700
      8 O8           2.3040     0.1050     0.0610 os         1 I45      -0.299900
      9 C9           0.9940     0.2350    -0.0990 cc         1 I45       0.267100
     10 C10          0.3020    -0.8330    -0.6160 cd         1 I45      -0.265500
     11 C11         -1.1110    -0.8010    -0.8260 c          1 I45       0.732700
     12 N12         -1.7270     0.4020    -0.4600 n          1 I45      -0.270200
     13 C13         -1.0590     1.4750     0.0500 cd         1 I45       0.133400
     14 C14          0.2890     1.4150     0.2360 cc         1 I45      -0.330000
     15 C15         -3.1450     0.4650    -0.6500 ca         1 I45       0.005600
     16 C16         -3.9700     0.1230     0.4040 ca         1 I45      -0.057000
     17 C17         -5.3520     0.2030     0.2690 ca         1 I45      -0.150600
     18 C18         -5.8780     0.6060    -0.9550 ca         1 I45      -0.092000
     19 C19         -5.0390     0.9290    -2.0090 ca         1 I45      -0.137000
     20 C20         -3.6550     0.8660    -1.8840 ca         1 I45      -0.029300
     21 F21          5.0470     2.8510     1.4950 f          1 I45      -0.142900
     22 F22          8.4540    -0.3230     1.1080 f          1 I45      -0.133900
     23 BR23         1.1880    -2.4140    -1.0810 br         1 I45      -0.033700
     24 O24         -1.7830    -1.7140    -1.2820 o          1 I45      -0.591500
     25 C25         -1.8360     2.7020     0.3910 c3         1 I45      -0.074900
     26 C26         -6.1940    -0.1890     1.4410 c          1 I45       0.676700
     27 O27         -5.7510    -0.9210     2.3170 o          1 I45      -0.594100
     28 N28         -7.4400     0.3010     1.4760 ns         1 I45      -0.570900
     29 C29         -8.3560    -0.0150     2.5460 c3         1 I45       0.094300
     30 C30         -2.7590     1.1950    -3.0370 c3         1 I45      -0.056800
     31 H3           7.4930     2.0270     1.6770 ha         1 I45       0.170000
     32 H5           6.5910    -1.9230     0.2570 ha         1 I45       0.159000
     33 H6           4.2270    -1.2990     0.0250 ha         1 I45       0.165000
     34 H7           2.6800     1.4490     1.5890 h1         1 I45       0.056200
     35 H7A          2.9920     2.0510    -0.0450 h1         1 I45       0.056200
     36 H14          0.7910     2.2800     0.6390 ha         1 I45       0.153000
     37 H16         -3.5330    -0.2000     1.3400 ha         1 I45       0.167000
     38 H18         -6.9480     0.6530    -1.1160 ha         1 I45       0.132000
     39 H19         -5.4700     1.2340    -2.9540 ha         1 I45       0.139000
     40 H25         -2.5870     2.5010     1.1550 hc         1 I45       0.063700
     41 H25A        -1.1660     3.4710     0.7660 hc         1 I45       0.063700
     42 H25B        -2.3590     3.1020    -0.4780 hc         1 I45       0.063700
     43 HN28        -7.7290     0.9890     0.8020 hn         1 I45       0.315500
     44 H29         -9.3190     0.4310     2.3150 h1         1 I45       0.041700
     45 H29A        -8.4920    -1.0910     2.6460 h1         1 I45       0.041700
     46 H29B        -8.0150     0.3780     3.5050 h1         1 I45       0.041700
     47 H30         -2.2450     0.3020    -3.3970 hc         1 I45       0.053367
     48 H30A        -3.3310     1.6050    -3.8670 hc         1 I45       0.053367
     49 H30B        -1.9910     1.9250    -2.7740 hc         1 I45       0.053367
@<TRIPOS>BOND
     1     1     2 ar  
     2     1     6 ar  
     3     1     7 1   
     4     2     3 ar  
     5     2    21 1   
     6     3     4 ar  
     7     3    31 1   
     8     4     5 ar  
     9     4    22 1   
    10     5     6 ar  
    11     5    32 1   
    12     6    33 1   
    13     7     8 1   
    14     7    34 1   
    15     7    35 1   
    16     8     9 1   
    17     9    10 2   
    18     9    14 1   
    19    10    11 1   
    20    10    23 1   
    21    11    12 1   
    22    11    24 2   
    23    12    13 1   
    24    12    15 1   
    25    13    14 2   
    26    13    25 1   
    27    14    36 1   
    28    15    16 ar  
    29    15    20 ar  
    30    16    17 ar  
    31    16    37 1   
    32    17    18 ar  
    33    17    26 1   
    34    18    19 ar  
    35    18    38 1   
    36    19    20 ar  
    37    19    39 1   
    38    20    30 1   
    39    25    40 1   
    40    25    41 1   
    41    25    42 1   
    42    26    27 2   
    43    26    28 1   
    44    28    29 1   
    45    28    43 1   
    46    29    44 1   
    47    29    45 1   
    48    29    46 1   
    49    30    47 1   
    50    30    48 1   
    51    30    49 1   
@<TRIPOS>SUBSTRUCTURE
     1 I45         1 TEMP              0 ****  ****    0 ROOT
