@<TRIPOS>MOLECULE
I45
   49    51     1     0     0
SMALL
No Charge or Current Charge


@<TRIPOS>ATOM
      1 C1           4.6050     0.6660     0.7890 ca         1 I45      -0.152300
      2 C2           5.4770     1.0910    -0.2350 ca         1 I45       0.198000
      3 C3           6.8140     0.6690    -0.2540 ca         1 I45      -0.197000
      4 C4           7.2870    -0.1850     0.7510 ca         1 I45       0.205000
      5 C5           6.4310    -0.6190     1.7730 ca         1 I45      -0.170000
      6 C6           5.0900    -0.1960     1.7940 ca         1 I45      -0.029000
      7 C7           3.1510     1.1160     0.8120 c3         1 I45       0.223900
      8 O8           2.3770     0.1530     0.0820 os         1 I45      -0.323100
      9 C9           1.0210     0.2860    -0.0730 cc         1 I45       0.267100
     10 C10          0.4340    -0.7170    -0.7990 cd         1 I45      -0.265500
     11 C11         -1.0260    -0.6810    -1.0350 c          1 I45       0.590200
     12 N12         -1.7110     0.4170    -0.4750 n          1 I45      -0.203200
     13 C13         -1.0960     1.4390     0.2690 cd         1 I45       0.133400
     14 C14          0.2660     1.3720     0.4680 cc         1 I45      -0.380000
     15 C15         -3.1280     0.6150    -0.6220 ca         1 I45       0.005600
     16 C16         -3.9970     0.1070     0.3630 ca         1 I45      -0.039000
     17 C17         -5.3960     0.2700     0.2570 ca         1 I45      -0.150600
     18 C18         -5.9100     0.9500    -0.8730 ca         1 I45      -0.074000
     19 C19         -5.0450     1.4450    -1.8630 ca         1 I45      -0.119000
     20 C20         -3.6520     1.2800    -1.7510 ca         1 I45      -0.029300
     21 F21          5.0340     1.9110    -1.2140 f          1 I45      -0.178000
     22 F22          8.5740    -0.5930     0.7330 f          1 I45      -0.169000
     23 Br23         1.4090    -2.1740    -1.5340 br         1 I45      -0.033700
     24 O24         -1.6110    -1.5480    -1.6740 o          1 I45      -0.516000
     25 C25         -1.8780     2.6020     0.8520 c3         1 I45      -0.074900
     26 C26         -6.2900    -0.2860     1.3460 c          1 I45       0.609700
     27 O27         -5.8410    -0.8710     2.3220 o          1 I45      -0.594100
     28 N28         -7.6470    -0.1020     1.1910 ns         1 I45      -0.503900
     29 C29         -8.6590    -0.5700     2.1410 c3         1 I45       0.094300
     30 C30         -2.7350     1.8190    -2.8450 c3         1 I45      -0.056800
     31 H3           7.4800     1.0010    -1.0460 ha         1 I45       0.152000
     32 H5           6.8070    -1.2830     2.5470 ha         1 I45       0.141000
     33 H6           4.4280    -0.5400     2.5880 ha         1 I45       0.147000
     34 H7           2.8050     1.1820     1.8520 h1         1 I45       0.056200
     35 H7A          3.0590     2.1120     0.3600 h1         1 I45       0.056200
     36 H14          0.7660     2.1460     1.0380 ha         1 I45       0.203000
     37 H16         -3.5720    -0.4150     1.2180 ha         1 I45       0.149000
     38 H18         -6.9780     1.1020    -1.0040 ha         1 I45       0.114000
     39 H19         -5.4640     1.9590    -2.7250 ha         1 I45       0.121000
     40 H25         -2.6130     2.2590     1.5890 hc         1 I45       0.063700
     41 H25A        -1.2220     3.3160     1.3640 hc         1 I45       0.063700
     42 H25B        -2.4090     3.1610     0.0740 hc         1 I45       0.063700
     43 HN28        -7.9530     0.3900     0.3610 hn         1 I45       0.315500
     44 H29         -9.6580    -0.2940     1.7790 h1         1 I45       0.041700
     45 H29A        -8.5980    -1.6620     2.2380 h1         1 I45       0.041700
     46 H29B        -8.4880    -0.1060     3.1210 h1         1 I45       0.041700
     47 H30         -2.2000     1.0030    -3.3440 hc         1 I45       0.053367
     48 H30A        -3.2940     2.3650    -3.6140 hc         1 I45       0.053367
     49 H30B        -1.9880     2.5080    -2.4330 hc         1 I45       0.053367
@<TRIPOS>BOND
     1     1     2 ar  
     2     1     6 ar  
     3     1     7 1   
     4     2     3 ar  
     5     2    21 1   
     6     3     4 ar  
     7     3    31 1   
     8     4     5 ar  
     9     4    22 1   
    10     5     6 ar  
    11     5    32 1   
    12     6    33 1   
    13     7     8 1   
    14     7    34 1   
    15     7    35 1   
    16     8     9 1   
    17     9    10 2   
    18     9    14 1   
    19    10    11 1   
    20    10    23 1   
    21    11    12 1   
    22    11    24 2   
    23    12    13 1   
    24    12    15 1   
    25    13    14 2   
    26    13    25 1   
    27    14    36 1   
    28    15    16 ar  
    29    15    20 ar  
    30    16    17 ar  
    31    16    37 1   
    32    17    18 ar  
    33    17    26 1   
    34    18    19 ar  
    35    18    38 1   
    36    19    20 ar  
    37    19    39 1   
    38    20    30 1   
    39    25    40 1   
    40    25    41 1   
    41    25    42 1   
    42    26    27 2   
    43    26    28 1   
    44    28    29 1   
    45    28    43 1   
    46    29    44 1   
    47    29    45 1   
    48    29    46 1   
    49    30    47 1   
    50    30    48 1   
    51    30    49 1   
@<TRIPOS>SUBSTRUCTURE
     1 I45         1 TEMP              0 ****  ****    0 ROOT
