@<TRIPOS>MOLECULE
I46
   28    30     1     0     0
SMALL
bcc


@<TRIPOS>ATOM
      1 C1          -1.4290     0.0470     1.0370 ca         1 I46      -0.093000
      2 C2          -2.3740    -1.0990    -0.8450 ca         1 I46      -0.093000
      3 C3          -2.5660     0.8320     1.1420 ca         1 I46      -0.169000
      4 C4          -3.5240    -0.3280    -0.7490 ca         1 I46      -0.169000
      5 C5           3.0850     0.1310     0.6930 ca         1 I46      -0.243300
      6 C6           3.6360     1.3960     0.7020 ca         1 I46       0.425200
      7 C7           1.2700     1.0230    -0.5800 ca         1 I46      -0.267300
      8 C8          -0.0850    -3.1390    -0.1440 cc         1 I46      -0.128300
      9 C9          -1.3120    -0.9250     0.0420 ca         1 I46      -0.021000
     10 C10         -3.5960     0.6290     0.2440 ca         1 I46       0.137900
     11 C11          1.8660    -0.0700     0.0380 ca         1 I46      -0.053500
     12 C12          1.9310     2.2350    -0.4890 ca         1 I46       0.630500
     13 C13         -0.1130    -1.7640    -0.0530 cd         1 I46      -0.197300
     14 C14          1.2560    -1.4000    -0.0180 cd         1 I46       0.364800
     15 N15          1.2070    -3.4970    -0.1510 na         1 I46       0.010400
     16 N16          3.0630     2.4490     0.1170 nb         1 I46      -0.699000
     17 N17          2.0340    -2.4710    -0.0740 nc         1 I46      -0.504800
     18 F18         -4.7020     1.3840     0.3420 f          1 I46      -0.141900
     19 F19          1.3780     3.3000    -1.0770 f          1 I46      -0.228200
     20 H1          -0.6290     0.1890     1.7510 ha         1 I46       0.138500
     21 H2          -2.3020    -1.8410    -1.6290 ha         1 I46       0.138500
     22 H3          -2.6510     1.5830     1.9170 ha         1 I46       0.152000
     23 H4          -4.3450    -0.4690    -1.4390 ha         1 I46       0.152000
     24 H6           4.5790     1.5790     1.2030 h4         1 I46       0.027100
     25 H7           0.3420     0.9410    -1.1270 ha         1 I46       0.168000
     26 H8          -0.8810    -3.8640    -0.1780 h4         1 I46       0.180000
     27 HN15         1.5750    -4.4330    -0.2140 hn         1 I46       0.328700
     28 H5           3.5870    -0.6830     1.1950 ha         1 I46       0.158000
@<TRIPOS>BOND
     1     1     3 ar  
     2     1     9 ar  
     3     1    20 1   
     4     2     4 ar  
     5     2     9 ar  
     6     2    21 1   
     7     3    10 ar  
     8     3    22 1   
     9     4    10 ar  
    10     4    23 1   
    11     5     6 ar  
    12     5    11 ar  
    13     5    28 1   
    14     6    16 ar  
    15     6    24 1   
    16     7    11 ar  
    17     7    12 ar  
    18     7    25 1   
    19     8    13 2   
    20     8    15 1   
    21     8    26 1   
    22     9    13 1   
    23    10    18 1   
    24    11    14 1   
    25    12    16 ar  
    26    12    19 1   
    27    13    14 1   
    28    14    17 2   
    29    15    17 1   
    30    15    27 1   
@<TRIPOS>SUBSTRUCTURE
     1 I46         1 TEMP              0 ****  ****    0 ROOT
