@<TRIPOS>MOLECULE
I46
   28    30     1     0     0
SMALL
No Charge or Current Charge


@<TRIPOS>ATOM
      1 C1          -1.2730     0.2640     0.7650 ca         1 I46      -0.075000
      2 C2          -2.5290    -1.3570    -0.5370 ca         1 I46      -0.075000
      3 C3          -2.4300     1.0530     0.8960 ca         1 I46      -0.151000
      4 C4          -3.6850    -0.5670    -0.4060 ca         1 I46      -0.151000
      5 C5           2.9670     0.1450     0.9580 ca         1 I46      -0.160000
      6 C6           3.5290     1.4310     1.0440 ca         1 I46       0.359900
      7 C7           1.4140     1.0110    -0.6560 ca         1 I46      -0.184000
      8 C8          -0.1210    -3.1240    -0.4430 cc         1 I46      -0.161000
      9 C9          -1.3010    -0.9430     0.0290 ca         1 I46      -0.021000
     10 C10         -3.6310     0.6380     0.3050 ca         1 I46       0.173000
     11 C11          1.8630    -0.0810     0.1110 ca         1 I46      -0.053500
     12 C12          2.0380     2.2570    -0.5030 ca         1 I46       0.565200
     13 C13         -0.0970    -1.7940    -0.1110 cd         1 I46      -0.132000
     14 C14          1.2830    -1.4280    -0.0560 cd         1 I46       0.299500
     15 N15          1.2170    -3.5040    -0.4640 na         1 I46       0.010800
     16 N16          3.0750     2.4850     0.3290 nb         1 I46      -0.699000
     17 N17          2.0900    -2.4610    -0.2270 nc         1 I46      -0.504800
     18 F18         -4.7420     1.3950     0.4340 f          1 I46      -0.177000
     19 F19          1.6230     3.3260    -1.2150 f          1 I46      -0.228200
     20 H1          -0.3690     0.5840     1.2720 ha         1 I46       0.120500
     21 H2          -2.5900    -2.2850    -1.1010 ha         1 I46       0.120500
     22 H3          -2.3990     1.9790     1.4650 ha         1 I46       0.134000
     23 H4          -4.6210    -0.8890    -0.8560 ha         1 I46       0.134000
     24 H6           4.3750     1.6210     1.7040 h4         1 I46       0.027100
     25 H7           0.5980     0.9050    -1.3640 ha         1 I46       0.150000
     26 H8          -0.9340    -3.8180    -0.6200 h4         1 I46       0.162000
     27 HN15         1.5640    -4.4470    -0.6440 hn         1 I46       0.379000
     28 H5           3.3860    -0.6630     1.5520 ha         1 I46       0.140000
@<TRIPOS>BOND
     1     1     3 ar  
     2     1     9 ar  
     3     1    20 1   
     4     2     4 ar  
     5     2     9 ar  
     6     2    21 1   
     7     3    10 ar  
     8     3    22 1   
     9     4    10 ar  
    10     4    23 1   
    11     5     6 ar  
    12     5    11 ar  
    13     5    28 1   
    14     6    16 ar  
    15     6    24 1   
    16     7    11 ar  
    17     7    12 ar  
    18     7    25 1   
    19     8    13 2   
    20     8    15 1   
    21     8    26 1   
    22     9    13 1   
    23    10    18 1   
    24    11    14 1   
    25    12    16 ar  
    26    12    19 1   
    27    13    14 1   
    28    14    17 2   
    29    15    17 1   
    30    15    27 1   
@<TRIPOS>SUBSTRUCTURE
     1 I46         1 TEMP              0 ****  ****    0 ROOT
