@<TRIPOS>MOLECULE
I47
   48    51     1     0     0
SMALL
bcc


@<TRIPOS>ATOM
      1 C1          -1.4420    -0.9960     0.2300 cc         1 I47      -0.016300
      2 N2          -0.7180    -2.0960     0.4760 na         1 I47       0.011400
      3 N3           0.5800    -1.8550     0.6280 nc         1 I47      -0.512800
      4 C4           0.7240    -0.5540     0.4750 cd         1 I47       0.368600
      5 C5          -0.5350     0.0560     0.2240 cd         1 I47      -0.334800
      6 C6          -2.8850    -1.0560    -0.0080 ca         1 I47      -0.044000
      7 C7          -0.8250     1.4760     0.0770 ca         1 I47       0.550800
      8 C8           2.0690     0.0920     0.5830 c6         1 I47      -0.084000
      9 C9          -3.4460    -0.4020    -1.1040 ca         1 I47      -0.100500
     10 C10         -4.8090    -0.4580    -1.3410 ca         1 I47      -0.122000
     11 C11         -5.6160    -1.1810    -0.4750 ca         1 I47       0.037400
     12 C12         -5.0810    -1.8460     0.6170 ca         1 I47      -0.122000
     13 C13         -3.7160    -1.7780     0.8460 ca         1 I47      -0.100500
     14 C14         -1.9990     2.0510     0.5670 ca         1 I47      -0.361600
     15 C15         -2.1670     3.4070     0.3730 ca         1 I47       0.432200
     16 N16         -1.2580     4.1620    -0.2380 nb         1 I47      -0.701000
     17 C17         -0.1700     3.5290    -0.6460 ca         1 I47       0.645900
     18 N18          0.0900     2.2370    -0.5260 nb         1 I47      -0.716000
     19 C19          2.9910    -0.6220     1.5730 c6         1 I47      -0.094900
     20 C20          4.3540     0.0600     1.6210 c6         1 I47       0.096500
     21 N21          4.9420     0.1190     0.2940 n          1 I47      -0.481800
     22 C22          4.1190     0.8370    -0.6630 c6         1 I47       0.096500
     23 C23          2.7480     0.1870    -0.7880 c6         1 I47      -0.094900
     24 CL24        -7.3200    -1.2550    -0.7660 cl         1 I47      -0.097400
     25 C25          6.0140    -0.6360    -0.0220 c          1 I47       0.669100
     26 O26          6.6150    -1.3170     0.7950 o          1 I47      -0.571100
     27 C27          6.4710    -0.5950    -1.4750 c3         1 I47       0.058400
     28 O28          7.6140    -1.3900    -1.5940 oh         1 I47      -0.558800
     29 H8           1.9190     1.1160     0.9390 hc         1 I47       0.065700
     30 H9          -2.8150     0.1500    -1.7890 ha         1 I47       0.145000
     31 H10         -5.2340     0.0500    -2.1950 ha         1 I47       0.154000
     32 H12         -5.7180    -2.4050     1.2880 ha         1 I47       0.154000
     33 H13         -3.3050    -2.2800     1.7130 ha         1 I47       0.145000
     34 H14         -2.7440     1.4750     1.0950 ha         1 I47       0.157000
     35 H15         -3.0610     3.9060     0.7300 h4         1 I47       0.025100
     36 H17          0.5900     4.1290    -1.1350 h5         1 I47       0.047100
     37 H19          2.5520    -0.6180     2.5740 hc         1 I47       0.060200
     38 H19A         3.1230    -1.6670     1.2830 hc         1 I47       0.060200
     39 H20          4.2460     1.0830     1.9980 h1         1 I47       0.054450
     40 H20A         5.0280    -0.4650     2.2920 h1         1 I47       0.054450
     41 H22          4.0060     1.8690    -0.3140 h1         1 I47       0.054450
     42 H22A         4.6040     0.8970    -1.6340 h1         1 I47       0.054450
     43 H23          2.8580    -0.8140    -1.2180 hc         1 I47       0.060200
     44 H23A         2.1290     0.7750    -1.4670 hc         1 I47       0.060200
     45 H27          5.6520    -0.9520    -2.1150 h1         1 I47       0.031200
     46 H27A         6.6620     0.4470    -1.7640 h1         1 I47       0.031200
     47 HO28         7.8860    -1.3630    -2.5160 ho         1 I47       0.402000
     48 HN2         -1.0540    -3.0470     0.4960 hn         1 I47       0.328700
@<TRIPOS>BOND
     1     1     2 1   
     2     1     5 2   
     3     1     6 1   
     4     2     3 1   
     5     2    48 1   
     6     3     4 2   
     7     4     5 1   
     8     4     8 1   
     9     5     7 1   
    10     6     9 ar  
    11     6    13 ar  
    12     7    14 ar  
    13     7    18 ar  
    14     8    19 1   
    15     8    23 1   
    16     8    29 1   
    17     9    10 ar  
    18     9    30 1   
    19    10    11 ar  
    20    10    31 1   
    21    11    12 ar  
    22    11    24 1   
    23    12    13 ar  
    24    12    32 1   
    25    13    33 1   
    26    14    15 ar  
    27    14    34 1   
    28    15    16 ar  
    29    15    35 1   
    30    16    17 ar  
    31    17    18 ar  
    32    17    36 1   
    33    19    20 1   
    34    19    37 1   
    35    19    38 1   
    36    20    21 1   
    37    20    39 1   
    38    20    40 1   
    39    21    22 1   
    40    21    25 1   
    41    22    23 1   
    42    22    41 1   
    43    22    42 1   
    44    23    43 1   
    45    23    44 1   
    46    25    26 2   
    47    25    27 1   
    48    27    28 1   
    49    27    45 1   
    50    27    46 1   
    51    28    47 1   
@<TRIPOS>SUBSTRUCTURE
     1 I47         1 TEMP              0 ****  ****    0 ROOT
