@<TRIPOS>MOLECULE
I47
   48    51     1     0     0
SMALL
No Charge or Current Charge


@<TRIPOS>ATOM
      1 C1          -1.4770    -1.1410     0.2170 cc         1 I47      -0.067000
      2 N2          -0.7310    -2.2920     0.4090 na         1 I47       0.011800
      3 N3           0.6240    -2.0430     0.5010 nc         1 I47      -0.512800
      4 C4           0.7010    -0.7240     0.3910 cd         1 I47       0.303300
      5 C5          -0.5750    -0.1050     0.2150 cd         1 I47      -0.269500
      6 C6          -2.9220    -1.0380     0.0130 ca         1 I47      -0.044000
      7 C7          -0.8670     1.3390     0.0990 ca         1 I47       0.222500
      8 C8           2.0350     0.0120     0.4990 c6         1 I47      -0.084000
      9 C9          -3.4510    -0.2530    -1.0320 ca         1 I47      -0.082500
     10 C10         -4.8410    -0.1720    -1.2280 ca         1 I47      -0.104000
     11 C11         -5.7100    -0.8840    -0.3870 ca         1 I47       0.129000
     12 C12         -5.1920    -1.6830     0.6450 ca         1 I47      -0.104000
     13 C13         -3.8020    -1.7640     0.8420 ca         1 I47      -0.082500
     14 C14         -2.0210     1.9110     0.6720 ca         1 I47      -0.213000
     15 C15         -2.2570     3.2790     0.4610 ca         1 I47       0.103900
     16 N16         -1.4180     4.0320    -0.2770 nb         1 I47      -0.175000
     17 C17         -0.3470     3.3970    -0.7980 ca         1 I47       0.119900
     18 N18         -0.0360     2.0920    -0.6530 nb         1 I47      -0.190000
     19 C19          2.9730    -0.5950     1.5860 c6         1 I47      -0.094900
     20 C20          4.3230     0.1590     1.6340 c6         1 I47       0.096500
     21 N21          4.9740     0.1540     0.2960 n          1 I47      -0.414800
     22 C22          4.1270     0.7720    -0.7620 c6         1 I47       0.096500
     23 C23          2.7690     0.0380    -0.8720 c6         1 I47      -0.094900
     24 Cl24        -7.4490    -0.7840    -0.6320 cl         1 I47      -0.189000
     25 C25          6.1600    -0.5800     0.0350 c          1 I47       0.602100
     26 O26          6.7060    -1.2120     0.9350 o          1 I47      -0.571100
     27 C27          6.7620    -0.5320    -1.4110 c3         1 I47       0.081600
     28 O28          8.0360    -1.2100    -1.5560 oh         1 I47      -0.621000
     29 H8           1.8450     1.0470     0.8060 hc         1 I47       0.065700
     30 H9          -2.7840     0.2920    -1.6960 ha         1 I47       0.127000
     31 H10         -5.2440     0.4390    -2.0320 ha         1 I47       0.136000
     32 H12         -5.8670    -2.2370     1.2920 ha         1 I47       0.136000
     33 H13         -3.4100    -2.3800     1.6470 ha         1 I47       0.127000
     34 H14         -2.7040     1.3220     1.2760 ha         1 I47       0.139000
     35 H15         -3.1260     3.7790     0.8850 h4         1 I47       0.025100
     36 H17          0.3320     3.9980    -1.3990 h5         1 I47       0.047100
     37 H19          2.4870    -0.5500     2.5700 hc         1 I47       0.060200
     38 H19A         3.1670    -1.6560     1.3770 hc         1 I47       0.060200
     39 H20          4.1500     1.2010     1.9430 h1         1 I47       0.054450
     40 H20A         4.9710    -0.2970     2.3940 h1         1 I47       0.054450
     41 H22          3.9480     1.8250    -0.5010 h1         1 I47       0.054450
     42 H22A         4.6200     0.7690    -1.7420 h1         1 I47       0.054450
     43 H23          2.9360    -0.9880    -1.2260 hc         1 I47       0.060200
     44 H23A         2.1440     0.5310    -1.6290 hc         1 I47       0.060200
     45 H27          6.0220    -0.9760    -2.0890 h1         1 I47       0.031200
     46 H27A         6.8700     0.5250    -1.6860 h1         1 I47       0.031200
     47 HO28         8.3150    -1.1160    -2.4940 ho         1 I47       0.441000
     48 HN2         -1.1000    -3.2400     0.4540 hn         1 I47       0.379000
@<TRIPOS>BOND
     1     1     2 1   
     2     1     5 2   
     3     1     6 1   
     4     2     3 1   
     5     2    48 1   
     6     3     4 2   
     7     4     5 1   
     8     4     8 1   
     9     5     7 1   
    10     6     9 ar  
    11     6    13 ar  
    12     7    14 ar  
    13     7    18 ar  
    14     8    19 1   
    15     8    23 1   
    16     8    29 1   
    17     9    10 ar  
    18     9    30 1   
    19    10    11 ar  
    20    10    31 1   
    21    11    12 ar  
    22    11    24 1   
    23    12    13 ar  
    24    12    32 1   
    25    13    33 1   
    26    14    15 ar  
    27    14    34 1   
    28    15    16 ar  
    29    15    35 1   
    30    16    17 ar  
    31    17    18 ar  
    32    17    36 1   
    33    19    20 1   
    34    19    37 1   
    35    19    38 1   
    36    20    21 1   
    37    20    39 1   
    38    20    40 1   
    39    21    22 1   
    40    21    25 1   
    41    22    23 1   
    42    22    41 1   
    43    22    42 1   
    44    23    43 1   
    45    23    44 1   
    46    25    26 2   
    47    25    27 1   
    48    27    28 1   
    49    27    45 1   
    50    27    46 1   
    51    28    47 1   
@<TRIPOS>SUBSTRUCTURE
     1 I47         1 TEMP              0 ****  ****    0 ROOT
