@<TRIPOS>MOLECULE
I48
   49    51     1     0     0
SMALL
abcg2


@<TRIPOS>ATOM
      1 N1          -7.5420    -1.7770    -0.8080 na         1 I48      -0.148700
      2 C2          -6.4280    -2.4590    -0.4860 ca         1 I48      -0.008500
      3 C3          -5.2780    -1.8050    -0.1770 ca         1 I48      -0.227000
      4 C4          -5.2440    -0.3870    -0.1940 ca         1 I48       0.436000
      5 C5          -6.4420     0.2860    -0.5370 ca         1 I48      -0.227000
      6 C6          -7.5580    -0.4360    -0.8350 ca         1 I48       0.042200
      7 NA1         -4.1250     0.2600     0.1050 nu         1 I48      -0.875200
      8 CA2         -3.9740     1.7010     0.0720 c3         1 I48       0.201800
      9 CA3         -2.6050     2.1060     0.5610 c3         1 I48       0.147600
     10 OA4         -1.6500     1.5350    -0.3130 os         1 I48      -0.364100
     11 C21         -0.3360     1.6820    -0.0450 ca         1 I48       0.132100
     12 C22          0.5320     1.0330    -0.9200 ca         1 I48      -0.121000
     13 C23          1.8960     1.1290    -0.7100 ca         1 I48       0.280000
     14 C24          2.4060     1.8720     0.3500 ca         1 I48      -0.158000
     15 C25          1.5430     2.5390     1.2080 ca         1 I48      -0.016300
     16 C26          0.1660     2.4340     1.0120 ca         1 I48      -0.197000
     17 C27          2.0830     3.3760     2.3310 c3         1 I48      -0.055800
     18 NB1          2.7800     0.4530    -1.5930 nu         1 I48      -0.865100
     19 SB2          2.9670    -1.1950    -1.4110 sy         1 I48       1.142600
     20 OBA          4.0040    -1.5730    -2.3550 o          1 I48      -0.526000
     21 OBB          1.6460    -1.7880    -1.4990 o          1 I48      -0.526000
     22 C31          3.5670    -1.4280     0.2360 ca         1 I48      -0.312500
     23 C32          2.6540    -1.5480     1.2770 ca         1 I48      -0.015500
     24 C33          3.1290    -1.6650     2.5740 ca         1 I48      -0.128500
     25 C34          4.4950    -1.6630     2.8210 ca         1 I48      -0.049000
     26 C35          5.3960    -1.5420     1.7700 ca         1 I48      -0.128500
     27 C36          4.9360    -1.4200     0.4680 ca         1 I48      -0.015500
     28 H1          -8.3840    -2.2870    -1.0370 hn         1 I48       0.386000
     29 H2          -6.5030    -3.5360    -0.4880 h4         1 I48       0.178000
     30 H3          -4.3970    -2.3750     0.0790 ha         1 I48       0.168500
     31 H5          -6.5000     1.3630    -0.5730 ha         1 I48       0.168500
     32 H6          -8.4930     0.0300    -1.1040 h4         1 I48       0.178000
     33 HA1         -3.3040    -0.2960     0.2900 hn         1 I48       0.535000
     34 HA21        -4.7110     2.1740     0.7240 h1         1 I48       0.079200
     35 HA22        -4.1400     2.0800    -0.9410 h1         1 I48       0.079200
     36 HA31        -2.4520     1.7580     1.5890 h1         1 I48       0.062200
     37 HA32        -2.5420     3.1980     0.5610 h1         1 I48       0.062200
     38 H22          0.1380     0.4740    -1.7580 ha         1 I48       0.156000
     39 H24          3.4770     1.9230     0.5080 ha         1 I48       0.127000
     40 H26         -0.4960     2.9520     1.6940 ha         1 I48       0.116000
     41 H271         2.2720     4.3970     1.9940 hc         1 I48       0.052700
     42 H272         1.3830     3.4320     3.1630 hc         1 I48       0.052700
     43 H273         3.0260     2.9790     2.7060 hc         1 I48       0.052700
     44 HB1          3.6810     0.9080    -1.7010 hn         1 I48       0.493000
     45 H32          1.5890    -1.5550     1.0880 ha         1 I48       0.133500
     46 H33          2.4280    -1.7600     3.3920 ha         1 I48       0.123000
     47 H34          4.8600    -1.7580     3.8350 ha         1 I48       0.123000
     48 H35          6.4610    -1.5460     1.9610 ha         1 I48       0.123000
     49 H36          5.6410    -1.3290    -0.3480 ha         1 I48       0.133500
@<TRIPOS>BOND
     1     1     2 1   
     2     1     6 2   
     3     1    28 1   
     4     2     3 ar  
     5     2    29 1   
     6     3     4 ar  
     7     3    30 1   
     8     4     5 ar  
     9     4     7 1   
    10     5     6 ar  
    11     5    31 1   
    12     6    32 1   
    13     7     8 1   
    14     7    33 1   
    15     8     9 1   
    16     8    34 1   
    17     8    35 1   
    18     9    10 1   
    19     9    36 1   
    20     9    37 1   
    21    10    11 1   
    22    11    12 ar  
    23    11    16 ar  
    24    12    13 ar  
    25    12    38 1   
    26    13    14 ar  
    27    13    18 1   
    28    14    15 ar  
    29    14    39 1   
    30    15    16 ar  
    31    15    17 1   
    32    16    40 1   
    33    17    41 1   
    34    17    42 1   
    35    17    43 1   
    36    18    19 1   
    37    18    44 1   
    38    19    20 2   
    39    19    21 2   
    40    19    22 1   
    41    22    23 ar  
    42    22    27 ar  
    43    23    24 ar  
    44    23    45 1   
    45    24    25 ar  
    46    24    46 1   
    47    25    26 ar  
    48    25    47 1   
    49    26    27 ar  
    50    26    48 1   
    51    27    49 1   
@<TRIPOS>SUBSTRUCTURE
     1 I48         1 TEMP              0 ****  ****    0 ROOT
