@<TRIPOS>MOLECULE
I48
   49    51     1     0     0
SMALL
No Charge or Current Charge


@<TRIPOS>ATOM
      1 N1          -6.5820    -2.6000     0.0780 na         1 I48      -0.148700
      2 C2          -5.2340    -2.9560     0.1920 ca         1 I48      -0.008500
      3 C3          -4.2330    -1.9810     0.3670 ca         1 I48      -0.227000
      4 C4          -4.5740    -0.6260     0.4290 ca         1 I48       0.436000
      5 C5          -5.9210    -0.2570     0.3240 ca         1 I48      -0.227000
      6 C6          -6.9110    -1.2420     0.1500 ca         1 I48       0.042200
      7 NA1         -3.5730     0.3240     0.6040 nu         1 I48      -0.875200
      8 CA2         -3.6130     1.7400     0.1700 c3         1 I48       0.201800
      9 CA3         -2.2830     2.4680     0.4800 c3         1 I48       0.147600
     10 OA4         -1.2010     1.7210    -0.1190 os         1 I48      -0.364100
     11 C21          0.1190     2.0990     0.0100 ca         1 I48       0.132100
     12 C22          1.0900     1.2920    -0.5980 ca         1 I48      -0.121000
     13 C23          2.4550     1.6120    -0.4950 ca         1 I48       0.280000
     14 C24          2.8360     2.7630     0.2120 ca         1 I48      -0.158000
     15 C25          1.8730     3.5850     0.8250 ca         1 I48      -0.016300
     16 C26          0.5120     3.2500     0.7240 ca         1 I48      -0.197000
     17 C27          2.3010     4.8290     1.5890 c3         1 I48      -0.055800
     18 NB1          3.4520     0.8310    -1.0730 nu         1 I48      -0.865100
     19 SB2          3.4230    -0.7780    -1.5530 sy         1 I48       1.142600
     20 OBA          4.8470    -1.0810    -1.6990 o          1 I48      -0.526000
     21 OBB          2.4920    -0.8160    -2.6840 o          1 I48      -0.526000
     22 C31          2.7570    -1.6770    -0.1440 ca         1 I48      -0.312500
     23 C32          1.4660    -2.2440    -0.2010 ca         1 I48      -0.015500
     24 C33          0.9530    -2.9320     0.9130 ca         1 I48      -0.128500
     25 C34          1.7220    -3.0590     2.0820 ca         1 I48      -0.049000
     26 C35          3.0080    -2.4960     2.1380 ca         1 I48      -0.128500
     27 C36          3.5280    -1.8070     1.0290 ca         1 I48      -0.015500
     28 H1          -7.3010    -3.3050    -0.0510 hn         1 I48       0.386000
     29 H2          -4.9880    -4.0190     0.1400 h4         1 I48       0.178000
     30 H3          -3.1940    -2.2870     0.4510 ha         1 I48       0.168500
     31 H5          -6.2110     0.7870     0.3810 ha         1 I48       0.168500
     32 H6          -7.9670    -0.9760     0.0680 h4         1 I48       0.178000
     33 HA1         -2.6340    -0.0700     0.6930 hn         1 I48       0.535000
     34 HA21        -4.4270     2.2760     0.6770 h1         1 I48       0.079200
     35 HA22        -3.8010     1.7990    -0.9120 h1         1 I48       0.079200
     36 HA31        -2.1550     2.5290     1.5690 h1         1 I48       0.062200
     37 HA32        -2.3260     3.4880     0.0770 h1         1 I48       0.062200
     38 H22          0.7650     0.4190    -1.1500 ha         1 I48       0.156000
     39 H24          3.8890     3.0230     0.2890 ha         1 I48       0.127000
     40 H26         -0.2220     3.8940     1.2000 ha         1 I48       0.116000
     41 H271         2.3100     5.7060     0.9310 hc         1 I48       0.052700
     42 H272         1.6200     5.0410     2.4210 hc         1 I48       0.052700
     43 H273         3.3070     4.7150     2.0090 hc         1 I48       0.052700
     44 HB1          4.4130     1.0480    -0.8490 hn         1 I48       0.493000
     45 H32          0.8570    -2.1570    -1.1000 ha         1 I48       0.133500
     46 H33         -0.0420    -3.3690     0.8680 ha         1 I48       0.123000
     47 H34          1.3220    -3.5920     2.9420 ha         1 I48       0.123000
     48 H35          3.6040    -2.5940     3.0430 ha         1 I48       0.123000
     49 H36          4.5250    -1.3720     1.0870 ha         1 I48       0.133500
@<TRIPOS>BOND
     1     1     2 1   
     2     1     6 2   
     3     1    28 1   
     4     2     3 ar  
     5     2    29 1   
     6     3     4 ar  
     7     3    30 1   
     8     4     5 ar  
     9     4     7 1   
    10     5     6 ar  
    11     5    31 1   
    12     6    32 1   
    13     7     8 1   
    14     7    33 1   
    15     8     9 1   
    16     8    34 1   
    17     8    35 1   
    18     9    10 1   
    19     9    36 1   
    20     9    37 1   
    21    10    11 1   
    22    11    12 ar  
    23    11    16 ar  
    24    12    13 ar  
    25    12    38 1   
    26    13    14 ar  
    27    13    18 1   
    28    14    15 ar  
    29    14    39 1   
    30    15    16 ar  
    31    15    17 1   
    32    16    40 1   
    33    17    41 1   
    34    17    42 1   
    35    17    43 1   
    36    18    19 1   
    37    18    44 1   
    38    19    20 2   
    39    19    21 2   
    40    19    22 1   
    41    22    23 ar  
    42    22    27 ar  
    43    23    24 ar  
    44    23    45 1   
    45    24    25 ar  
    46    24    46 1   
    47    25    26 ar  
    48    25    47 1   
    49    26    27 ar  
    50    26    48 1   
    51    27    49 1   
@<TRIPOS>SUBSTRUCTURE
     1 I48         1 TEMP              0 ****  ****    0 ROOT
