@<TRIPOS>MOLECULE
I49
   30    30     1     0     0
SMALL
No Charge or Current Charge


@<TRIPOS>ATOM
      1 C06        202.8300   269.0190   215.1080 c3         1 I49      -0.070100
      2 C07        202.1880   267.6970   215.5190 ca         1 I49      -0.044300
      3 C08        204.3700   268.9520   214.9610 c3         1 I49       0.233800
      4 C09        202.2820   266.5670   214.6820 ca         1 I49      -0.099000
      5 C10        201.5010   267.5900   216.7450 ca         1 I49      -0.108000
      6 C11        201.7100   265.3440   215.0730 ca         1 I49      -0.071000
      7 C12        200.9340   266.3670   217.1410 ca         1 I49       0.140000
      8 C13        201.0390   265.2380   216.3020 ca         1 I49       0.188000
      9 C14        205.0800   267.4000   216.7210 c2         1 I49       0.858100
     10 C15        204.1870   267.8310   218.8060 c2         1 I49       0.847100
     11 I02        200.1830   263.3180   216.8690 i          1 I49      -0.293000
     12 N01        205.0290   268.6280   216.2340 nu         1 I49      -0.911400
     13 N02        205.1550   267.4840   218.0300 nu         1 I49      -0.932400
     14 N03        205.7070   266.5060   216.1080 n2         1 I49      -0.902100
     15 N04        203.9130   269.0390   218.8710 n2         1 I49      -0.933100
     16 N05        204.5110   267.1450   219.8560 nv         1 I49      -1.080200
     17 Cl01       200.1080   266.2760   218.6970 cl         1 I49      -0.185000
     18 H1         202.4090   269.3400   214.1480 hc         1 I49       0.054700
     19 H2         202.5790   269.8110   215.8240 hc         1 I49       0.054700
     20 H3         204.6380   268.2190   214.1880 h1         1 I49       0.064700
     21 H4         204.7220   269.9330   214.6100 h1         1 I49       0.064700
     22 H5         202.8030   266.6340   213.7290 ha         1 I49       0.120000
     23 H6         201.4140   268.4540   217.3990 ha         1 I49       0.140000
     24 H7         201.7900   264.4750   214.4260 ha         1 I49       0.128000
     25 H8         204.7540   269.1970   217.0350 hn         1 I49       0.531000
     26 H9         205.5940   266.7010   218.4650 hn         1 I49       0.491000
     27 H10        205.8950   265.7440   216.7630 hn         1 I49       0.380400
     28 H11        203.4750   269.2040   219.7840 hn         1 I49       0.397400
     29 H12        205.0240   267.7360   220.4970 hn         1 I49       0.468000
     30 H13        203.6960   266.7400   220.3000 hn         1 I49       0.468000
@<TRIPOS>BOND
     1     1     2 1   
     2     1     3 1   
     3     1    18 1   
     4     1    19 1   
     5     2     4 ar  
     6     2     5 ar  
     7     3    12 1   
     8     3    20 1   
     9     3    21 1   
    10     4     6 ar  
    11     4    22 1   
    12     5     7 ar  
    13     5    23 1   
    14     6     8 ar  
    15     6    24 1   
    16     7     8 ar  
    17     7    17 1   
    18     8    11 1   
    19     9    12 1   
    20     9    13 1   
    21     9    14 2   
    22    10    13 1   
    23    10    15 2   
    24    10    16 1   
    25    12    25 1   
    26    13    26 1   
    27    14    27 1   
    28    15    28 1   
    29    16    29 1   
    30    16    30 1   
@<TRIPOS>SUBSTRUCTURE
     1 I49         1 TEMP              0 ****  ****    0 ROOT
