@<TRIPOS>MOLECULE
I49
   30    30     1     0     0
SMALL
bcc


@<TRIPOS>ATOM
      1 C06        202.7790   268.9400   214.8500 c3         1 I49      -0.070100
      2 C07        202.1630   267.6360   215.2590 ca         1 I49      -0.044300
      3 C08        204.3010   268.9500   215.0800 c3         1 I49       0.233800
      4 C09        201.9910   266.5990   214.3470 ca         1 I49      -0.117000
      5 C10        201.8270   267.4110   216.5890 ca         1 I49      -0.126000
      6 C11        201.5120   265.3640   214.7520 ca         1 I49      -0.089000
      7 C12        201.3670   266.1710   217.0050 ca         1 I49       0.048400
      8 C13        201.2060   265.1380   216.0890 ca         1 I49       0.050900
      9 C14        204.9910   267.4490   216.8820 c2         1 I49       0.858100
     10 C15        204.4150   268.0720   219.2550 c2         1 I49       0.847100
     11 I02        200.5080   263.2480   216.6630 i          1 I49      -0.155900
     12 N01        204.6600   268.6900   216.4490 nu         1 I49      -0.856200
     13 N02        204.9450   267.2620   218.2680 nu         1 I49      -0.877200
     14 N03        205.3690   266.5210   216.0840 n2         1 I49      -0.902100
     15 N04        203.9070   269.2170   218.9810 n2         1 I49      -0.933100
     16 N05        204.4570   267.4950   220.4930 nv         1 I49      -0.969800
     17 CL01       201.0190   265.9540   218.6820 cl         1 I49      -0.093400
     18 H1         202.5880   269.1380   213.7940 hc         1 I49       0.054700
     19 H2         202.3300   269.7590   215.4170 hc         1 I49       0.054700
     20 H3         204.7810   268.2130   214.4400 h1         1 I49       0.064700
     21 H4         204.6860   269.9290   214.7890 h1         1 I49       0.064700
     22 H5         202.2400   266.7490   213.3040 ha         1 I49       0.138000
     23 H6         201.9450   268.2020   217.3200 ha         1 I49       0.158000
     24 H7         201.3850   264.5750   214.0240 ha         1 I49       0.146000
     25 H8         204.2740   269.3010   217.1670 hn         1 I49       0.475800
     26 H9         205.2600   266.3520   218.5640 hn         1 I49       0.435800
     27 H10        205.5810   265.6640   216.5790 hn         1 I49       0.380400
     28 H11        203.5770   269.6880   219.8130 hn         1 I49       0.397400
     29 H12        205.1540   266.7910   220.6780 hn         1 I49       0.412800
     30 H13        204.3020   268.1110   221.2740 hn         1 I49       0.412800
@<TRIPOS>BOND
     1     1     2 1   
     2     1     3 1   
     3     1    18 1   
     4     1    19 1   
     5     2     4 ar  
     6     2     5 ar  
     7     3    12 1   
     8     3    20 1   
     9     3    21 1   
    10     4     6 ar  
    11     4    22 1   
    12     5     7 ar  
    13     5    23 1   
    14     6     8 ar  
    15     6    24 1   
    16     7     8 ar  
    17     7    17 1   
    18     8    11 1   
    19     9    12 1   
    20     9    13 1   
    21     9    14 2   
    22    10    13 1   
    23    10    15 2   
    24    10    16 1   
    25    12    25 1   
    26    13    26 1   
    27    14    27 1   
    28    15    28 1   
    29    16    29 1   
    30    16    30 1   
@<TRIPOS>SUBSTRUCTURE
     1 I49         1 TEMP              0 ****  ****    0 ROOT
