@<TRIPOS>MOLECULE
I4A
   48    51     1     0     0
SMALL
bcc


@<TRIPOS>ATOM
      1 O27         -2.1660    -2.9880     1.2710 o          1 I4A      -0.823300
      2 C25         -1.0530    -2.5690     1.6300 c          1 I4A       0.923200
      3 O26         -0.6960    -2.2990     2.7970 o          1 I4A      -0.823300
      4 C4           0.0080    -2.4310     0.5500 ca         1 I4A      -0.130600
      5 C6           0.8930    -1.3520     0.3750 ca         1 I4A      -0.005200
      6 C7           1.9160    -1.3950    -0.6040 ca         1 I4A      -0.109800
      7 C9           2.6160    -0.1500    -0.5660 cc         1 I4A      -0.149400
      8 C10          3.8320     0.1890    -1.3730 c3         1 I4A       0.011800
      9 C12          4.8460     1.0300    -0.5970 c3         1 I4A      -0.070400
     10 C14          4.4850     2.5120    -0.4930 c3         1 I4A      -0.065400
     11 C13          3.0040     2.8210    -0.2910 c3         1 I4A      -0.065400
     12 C11          2.3050     2.0160     0.8030 c3         1 I4A      -0.008200
     13 C8           1.9980     0.6120     0.3850 cd         1 I4A      -0.072300
     14 C3           2.0830    -2.5270    -1.4050 ca         1 I4A      -0.123000
     15 C2           1.2050    -3.5800    -1.2540 ca         1 I4A      -0.164000
     16 C1           0.1810    -3.5140    -0.3030 ca         1 I4A      -0.111000
     17 N5           0.9710    -0.1090     0.9690 na         1 I4A      -0.041400
     18 C15         -0.0030     0.4990     1.8500 c3         1 I4A       0.065600
     19 C16         -1.0750     1.2680     1.1150 ca         1 I4A      -0.093300
     20 C17         -1.7220     0.7200     0.0130 ca         1 I4A      -0.035000
     21 C18         -2.7340     1.4140    -0.6430 ca         1 I4A      -0.154600
     22 C22         -3.3800     0.7550    -1.8220 c          1 I4A       0.683700
     23 N24         -4.6030     1.1950    -2.1550 nt         1 I4A      -0.680000
     24 O23         -2.8080    -0.1350    -2.4370 o          1 I4A      -0.586100
     25 C19         -3.0910     2.6870    -0.2020 ca         1 I4A      -0.119000
     26 C20         -2.4480     3.2430     0.8920 ca         1 I4A      -0.154000
     27 C21         -1.4500     2.5360     1.5480 ca         1 I4A      -0.115000
     28 H10          4.3100    -0.7450    -1.6810 hc         1 I4A       0.033700
     29 H10A         3.5640     0.6980    -2.3070 hc         1 I4A       0.033700
     30 H12          4.9600     0.5990     0.4020 hc         1 I4A       0.032200
     31 H12A         5.8280     0.9470    -1.0700 hc         1 I4A       0.032200
     32 H14          5.0620     2.9550     0.3240 hc         1 I4A       0.022200
     33 H14A         4.8100     3.0260    -1.4020 hc         1 I4A       0.022200
     34 H13          2.9080     3.8830    -0.0500 hc         1 I4A       0.035200
     35 H13A         2.4580     2.6800    -1.2270 hc         1 I4A       0.035200
     36 H11          2.9050     2.0220     1.7210 hc         1 I4A       0.040700
     37 H11A         1.3770     2.5340     1.0550 hc         1 I4A       0.040700
     38 H3           2.8740    -2.5670    -2.1450 ha         1 I4A       0.105000
     39 H2           1.3040    -4.4650    -1.8700 ha         1 I4A       0.104000
     40 H1          -0.4950    -4.3550    -0.2070 ha         1 I4A       0.136000
     41 H15         -0.4460    -0.2870     2.4570 h1         1 I4A       0.095700
     42 H15A         0.5150     1.1590     2.5460 h1         1 I4A       0.095700
     43 H17         -1.4520    -0.2660    -0.3440 ha         1 I4A       0.190000
     44 HN24        -5.1290     1.8270    -1.5770 hn         1 I4A       0.304000
     45 HN2A        -5.0950     0.7630    -2.9190 hn         1 I4A       0.304000
     46 H19         -3.8480     3.2680    -0.7140 ha         1 I4A       0.112000
     47 H20         -2.7150     4.2370     1.2260 ha         1 I4A       0.117000
     48 H21         -0.9510     2.9820     2.4010 ha         1 I4A       0.121000
@<TRIPOS>BOND
     1     1     2 1   
     2     2     3 1   
     3     2     4 1   
     4     4     5 ar  
     5     4    16 ar  
     6     5     6 ar  
     7     5    17 1   
     8     6     7 1   
     9     6    14 ar  
    10     7     8 1   
    11     7    13 2   
    12     8     9 1   
    13     8    28 1   
    14     8    29 1   
    15     9    10 1   
    16     9    30 1   
    17     9    31 1   
    18    10    11 1   
    19    10    32 1   
    20    10    33 1   
    21    11    12 1   
    22    11    34 1   
    23    11    35 1   
    24    12    13 1   
    25    12    36 1   
    26    12    37 1   
    27    13    17 1   
    28    14    15 ar  
    29    14    38 1   
    30    15    16 ar  
    31    15    39 1   
    32    16    40 1   
    33    17    18 1   
    34    18    19 1   
    35    18    41 1   
    36    18    42 1   
    37    19    20 ar  
    38    19    27 ar  
    39    20    21 ar  
    40    20    43 1   
    41    21    22 1   
    42    21    25 ar  
    43    22    23 1   
    44    22    24 2   
    45    23    44 1   
    46    23    45 1   
    47    25    26 ar  
    48    25    46 1   
    49    26    27 ar  
    50    26    47 1   
    51    27    48 1   
@<TRIPOS>SUBSTRUCTURE
     1 I4A         1 TEMP              0 ****  ****    0 ROOT
