@<TRIPOS>MOLECULE
I4A
   48    51     1     0     0
SMALL
No Charge or Current Charge


@<TRIPOS>ATOM
      1 O27         -2.1760    -2.1800     1.1050 o          1 I4A      -0.718000
      2 C25         -1.0970    -2.4290     1.6210 c          1 I4A       0.712600
      3 O26         -0.9590    -2.7330     2.7970 o          1 I4A      -0.718000
      4 C4           0.1090    -2.5060     0.7290 ca         1 I4A      -0.130600
      5 C6           0.9830    -1.4150     0.4740 ca         1 I4A      -0.005200
      6 C7           2.0490    -1.5690    -0.3800 ca         1 I4A      -0.109800
      7 C9           2.7390    -0.3150    -0.4940 cc         1 I4A      -0.149400
      8 C10          3.9710    -0.0600    -1.3330 c3         1 I4A       0.011800
      9 C12          4.8540     1.0940    -0.8100 c3         1 I4A      -0.070400
     10 C14          4.3180     2.5170    -1.0940 c3         1 I4A      -0.065400
     11 C13          2.8090     2.7360    -0.8310 c3         1 I4A      -0.065400
     12 C11          2.2690     2.0750     0.4560 c3         1 I4A      -0.008200
     13 C8           2.0270     0.5870     0.2930 cd         1 I4A      -0.072300
     14 C3           2.3350    -2.7840    -1.0190 ca         1 I4A      -0.105000
     15 C2           1.4930    -3.8800    -0.7700 ca         1 I4A      -0.146000
     16 C1           0.3880    -3.7410     0.0950 ca         1 I4A      -0.093000
     17 N5           0.9600    -0.0920     0.9340 na         1 I4A      -0.070700
     18 C15          0.0020     0.4800     1.9050 c3         1 I4A       0.094900
     19 C16         -1.2300     1.1590     1.3000 ca         1 I4A      -0.093300
     20 C17         -1.5700     1.0280    -0.0660 ca         1 I4A      -0.017000
     21 C18         -2.7060     1.6780    -0.6000 ca         1 I4A      -0.154600
     22 C22         -3.0320     1.5120    -2.0690 c          1 I4A       0.616700
     23 N24         -4.1310     2.1320    -2.5530 nt         1 I4A      -0.613000
     24 O23         -2.3450     0.8490    -2.8270 o          1 I4A      -0.586100
     25 C19         -3.5060     2.4660     0.2610 ca         1 I4A      -0.101000
     26 C20         -3.1730     2.5950     1.6180 ca         1 I4A      -0.136000
     27 C21         -2.0430     1.9470     2.1350 ca         1 I4A      -0.097000
     28 H10          4.5850    -0.9680    -1.3520 hc         1 I4A       0.033700
     29 H10A         3.6840     0.1400    -2.3730 hc         1 I4A       0.033700
     30 H12          5.0020     0.9660     0.2690 hc         1 I4A       0.032200
     31 H12A         5.8490     1.0090    -1.2640 hc         1 I4A       0.032200
     32 H14          4.8910     3.2260    -0.4850 hc         1 I4A       0.022200
     33 H14A         4.5250     2.7740    -2.1400 hc         1 I4A       0.022200
     34 H13          2.6250     3.8160    -0.7780 hc         1 I4A       0.035200
     35 H13A         2.2300     2.3710    -1.6880 hc         1 I4A       0.035200
     36 H11          2.9580     2.2640     1.2880 hc         1 I4A       0.040700
     37 H11A         1.3310     2.5810     0.7120 hc         1 I4A       0.040700
     38 H3           3.1810    -2.8800    -1.6950 ha         1 I4A       0.087000
     39 H2           1.6890    -4.8350    -1.2510 ha         1 I4A       0.086000
     40 H1          -0.2620    -4.5950     0.2730 ha         1 I4A       0.118000
     41 H15         -0.3070    -0.2840     2.6220 h1         1 I4A       0.095700
     42 H15A         0.5450     1.2260     2.4980 h1         1 I4A       0.095700
     43 H17         -0.9540     0.4170    -0.7230 ha         1 I4A       0.172000
     44 HN24        -4.7100     2.6840    -1.9400 hn         1 I4A       0.304000
     45 HN2A        -4.3620     2.0330    -3.5300 hn         1 I4A       0.304000
     46 H19         -4.3890     2.9830    -0.1070 ha         1 I4A       0.094000
     47 H20         -3.7950     3.2030     2.2720 ha         1 I4A       0.099000
     48 H21         -1.7960     2.0580     3.1890 ha         1 I4A       0.103000
@<TRIPOS>BOND
     1     1     2 1   
     2     2     3 1   
     3     2     4 1   
     4     4     5 ar  
     5     4    16 ar  
     6     5     6 ar  
     7     5    17 1   
     8     6     7 1   
     9     6    14 ar  
    10     7     8 1   
    11     7    13 2   
    12     8     9 1   
    13     8    28 1   
    14     8    29 1   
    15     9    10 1   
    16     9    30 1   
    17     9    31 1   
    18    10    11 1   
    19    10    32 1   
    20    10    33 1   
    21    11    12 1   
    22    11    34 1   
    23    11    35 1   
    24    12    13 1   
    25    12    36 1   
    26    12    37 1   
    27    13    17 1   
    28    14    15 ar  
    29    14    38 1   
    30    15    16 ar  
    31    15    39 1   
    32    16    40 1   
    33    17    18 1   
    34    18    19 1   
    35    18    41 1   
    36    18    42 1   
    37    19    20 ar  
    38    19    27 ar  
    39    20    21 ar  
    40    20    43 1   
    41    21    22 1   
    42    21    25 ar  
    43    22    23 1   
    44    22    24 2   
    45    23    44 1   
    46    23    45 1   
    47    25    26 ar  
    48    25    46 1   
    49    26    27 ar  
    50    26    47 1   
    51    27    48 1   
@<TRIPOS>SUBSTRUCTURE
     1 I4A         1 TEMP              0 ****  ****    0 ROOT
