@<TRIPOS>MOLECULE
I4B
   24    24     1     0     0
SMALL
No Charge or Current Charge


@<TRIPOS>ATOM
      1 C1          -0.1700    -0.4640    -0.3340 ca         1 I4B      -0.074300
      2 C2           1.0010    -0.8050    -1.0390 ca         1 I4B      -0.108500
      3 C3           1.1510    -0.4360    -2.3870 ca         1 I4B      -0.109500
      4 C4           0.1300     0.2750    -3.0390 ca         1 I4B      -0.113000
      5 C5          -1.0410     0.6170    -2.3430 ca         1 I4B      -0.109500
      6 C6          -1.1910     0.2480    -0.9950 ca         1 I4B      -0.108500
      7 C7          -0.3350    -0.8600     1.1300 c3         1 I4B      -0.030100
      8 C8          -0.2060     0.3360     2.1110 c3         1 I4B      -0.057700
      9 C9          -0.5280    -0.0910     3.5610 c3         1 I4B      -0.088100
     10 C10          1.1810     1.0170     2.0270 c3         1 I4B      -0.088100
     11 H2           1.7980    -1.3530    -0.5410 ha         1 I4B       0.109500
     12 H3           2.0590    -0.7010    -2.9250 ha         1 I4B       0.110500
     13 H4           0.2460     0.5610    -4.0830 ha         1 I4B       0.111000
     14 H5          -1.8330     1.1670    -2.8470 ha         1 I4B       0.110500
     15 H6          -2.1010     0.5170    -0.4620 ha         1 I4B       0.109500
     16 H1'1         0.3990    -1.6280     1.4030 hc         1 I4B       0.045700
     17 H1'2        -1.3190    -1.3250     1.2650 hc         1 I4B       0.045700
     18 H7          -0.9550     1.0850     1.8230 hc         1 I4B       0.046700
     19 H3'1        -0.4860     0.7720     4.2370 hc         1 I4B       0.033200
     20 H3'2        -1.5360    -0.5190     3.6250 hc         1 I4B       0.033200
     21 H3'3         0.1880    -0.8410     3.9160 hc         1 I4B       0.033200
     22 H4'1         1.9790     0.3070     2.2740 hc         1 I4B       0.033200
     23 H4'2         1.3670     1.4080     1.0200 hc         1 I4B       0.033200
     24 H4'3         1.2420     1.8580     2.7270 hc         1 I4B       0.033200
@<TRIPOS>BOND
     1     1     2 ar  
     2     1     6 ar  
     3     1     7 1   
     4     2     3 ar  
     5     2    11 1   
     6     3     4 ar  
     7     3    12 1   
     8     4     5 ar  
     9     4    13 1   
    10     5     6 ar  
    11     5    14 1   
    12     6    15 1   
    13     7     8 1   
    14     7    16 1   
    15     7    17 1   
    16     8     9 1   
    17     8    10 1   
    18     8    18 1   
    19     9    19 1   
    20     9    20 1   
    21     9    21 1   
    22    10    22 1   
    23    10    23 1   
    24    10    24 1   
@<TRIPOS>SUBSTRUCTURE
     1 I4B         1 TEMP              0 ****  ****    0 ROOT
