@<TRIPOS>MOLECULE
I4B
   24    24     1     0     0
SMALL
abcg2


@<TRIPOS>ATOM
      1 C1          -0.1870    -0.4560    -0.3190 ca         1 I4B      -0.074300
      2 C2           0.9920    -0.7420    -1.0050 ca         1 I4B      -0.108500
      3 C3           1.1510    -0.3820    -2.3380 ca         1 I4B      -0.109500
      4 C4           0.1280     0.2750    -3.0090 ca         1 I4B      -0.113000
      5 C5          -1.0530     0.5660    -2.3370 ca         1 I4B      -0.109500
      6 C6          -1.2060     0.2020    -1.0070 ca         1 I4B      -0.108500
      7 C7          -0.3590    -0.8230     1.1280 c3         1 I4B      -0.030100
      8 C8          -0.1980     0.3610     2.0920 c3         1 I4B      -0.057700
      9 C9          -0.5190    -0.0800     3.5160 c3         1 I4B      -0.088100
     10 C10          1.1960     0.9700     2.0120 c3         1 I4B      -0.088100
     11 H2           1.7960    -1.2530    -0.4890 ha         1 I4B       0.109500
     12 H3           2.0750    -0.6170    -2.8510 ha         1 I4B       0.110500
     13 H4           0.2500     0.5550    -4.0480 ha         1 I4B       0.111000
     14 H5          -1.8590     1.0740    -2.8520 ha         1 I4B       0.110500
     15 H6          -2.1350     0.4300    -0.4940 ha         1 I4B       0.109500
     16 H1'1         0.3640    -1.5990     1.4000 hc         1 I4B       0.045700
     17 H1'2        -1.3520    -1.2580     1.2750 hc         1 I4B       0.045700
     18 H7          -0.9250     1.1300     1.8060 hc         1 I4B       0.046700
     19 H3'1        -0.4290     0.7510     4.2170 hc         1 I4B       0.033200
     20 H3'2        -1.5350    -0.4720     3.5920 hc         1 I4B       0.033200
     21 H3'3         0.1640    -0.8670     3.8470 hc         1 I4B       0.033200
     22 H4'1         1.9600     0.2260     2.2540 hc         1 I4B       0.033200
     23 H4'2         1.4160     1.3570     1.0160 hc         1 I4B       0.033200
     24 H4'3         1.3040     1.7960     2.7180 hc         1 I4B       0.033200
@<TRIPOS>BOND
     1     1     2 ar  
     2     1     6 ar  
     3     1     7 1   
     4     2     3 ar  
     5     2    11 1   
     6     3     4 ar  
     7     3    12 1   
     8     4     5 ar  
     9     4    13 1   
    10     5     6 ar  
    11     5    14 1   
    12     6    15 1   
    13     7     8 1   
    14     7    16 1   
    15     7    17 1   
    16     8     9 1   
    17     8    10 1   
    18     8    18 1   
    19     9    19 1   
    20     9    20 1   
    21     9    21 1   
    22    10    22 1   
    23    10    23 1   
    24    10    24 1   
@<TRIPOS>SUBSTRUCTURE
     1 I4B         1 TEMP              0 ****  ****    0 ROOT
