@<TRIPOS>MOLECULE
I4C
   27    27     1     0     0
SMALL
bcc


@<TRIPOS>ATOM
      1 C1          -2.8900    -0.2880    -0.4530 c6         1 I4C       0.111100
      2 C2          -2.0500    -1.5070    -0.0920 c6         1 I4C       0.086600
      3 C3          -0.6290    -1.3350    -0.6260 c6         1 I4C       0.117600
      4 C4           0.0450    -0.0610    -0.1080 c6         1 I4C       0.256100
      5 C5          -0.8390     1.1450    -0.4330 c6         1 I4C       0.117600
      6 C6          -2.2540     0.9720     0.1140 c6         1 I4C       0.086600
      7 O1          -4.1910    -0.4930     0.0490 oh         1 I4C      -0.632800
      8 O2          -1.9990    -1.7080     1.3010 oh         1 I4C      -0.603300
      9 O3           0.1840    -2.4300    -0.2890 oh         1 I4C      -0.515300
     10 O4           1.2820     0.0980    -0.7200 os         1 I4C      -0.541200
     11 O5          -0.2330     2.2980     0.1030 oh         1 I4C      -0.515300
     12 O6          -3.0870     2.0630    -0.2430 oh         1 I4C      -0.603300
     13 P4           2.7460     0.1860     0.1580 p5         1 I4C       1.276900
     14 O41          2.3510     0.3850     1.6170 o          1 I4C      -0.919833
     15 O42          3.4380    -1.1420    -0.1290 o          1 I4C      -0.919833
     16 O43          3.4330     1.3830    -0.4920 o          1 I4C      -0.919833
     17 H1          -2.9110    -0.2030    -1.5520 h1         1 I4C       0.039700
     18 H2          -2.4970    -2.3850    -0.5890 h1         1 I4C       0.031700
     19 H3          -0.7190    -1.2410    -1.7210 h1         1 I4C       0.016700
     20 H4           0.1510    -0.1310     0.9820 h1         1 I4C       0.089700
     21 H5          -0.9090     1.2280    -1.5310 h1         1 I4C       0.016700
     22 H6          -2.2020     0.8800     1.2060 h1         1 I4C       0.031700
     23 HO1         -4.6450     0.3570     0.0460 ho         1 I4C       0.406000
     24 HO2         -2.9050    -1.6990     1.6290 ho         1 I4C       0.389500
     25 HO3         -0.1860    -3.2150    -0.7040 ho         1 I4C       0.353500
     26 HO5         -0.6430     3.0660    -0.3030 ho         1 I4C       0.353500
     27 HO6         -3.0110     2.7450     0.4300 ho         1 I4C       0.389500
@<TRIPOS>BOND
     1     1     2 1   
     2     1     6 1   
     3     1     7 1   
     4     1    17 1   
     5     2     3 1   
     6     2     8 1   
     7     2    18 1   
     8     3     4 1   
     9     3     9 1   
    10     3    19 1   
    11     4     5 1   
    12     4    10 1   
    13     4    20 1   
    14     5     6 1   
    15     5    11 1   
    16     5    21 1   
    17     6    12 1   
    18     6    22 1   
    19     7    23 1   
    20     8    24 1   
    21     9    25 1   
    22    10    13 1   
    23    11    26 1   
    24    12    27 1   
    25    13    14 1   
    26    13    15 1   
    27    13    16 1   
@<TRIPOS>SUBSTRUCTURE
     1 I4C         1 TEMP              0 ****  ****    0 ROOT
