@<TRIPOS>MOLECULE
I4C
   27    27     1     0     0
SMALL
No Charge or Current Charge


@<TRIPOS>ATOM
      1 C1          -2.9780    -0.3550    -0.4280 c6         1 I4C       0.134300
      2 C2          -2.0760    -1.6260    -0.4290 c6         1 I4C       0.109800
      3 C3          -0.6670    -1.3170    -1.0190 c6         1 I4C       0.140800
      4 C4           0.0150    -0.1030    -0.2890 c6         1 I4C       0.279300
      5 C5          -0.9150     1.1660    -0.3390 c6         1 I4C       0.140800
      6 C6          -2.2950     0.8370     0.3050 c6         1 I4C       0.109800
      7 O1          -4.2440    -0.6320     0.1970 oh         1 I4C      -0.755000
      8 O2          -1.9650    -2.1630     0.9020 oh         1 I4C      -0.725500
      9 O3           0.1270    -2.5160    -0.9480 oh         1 I4C      -0.637500
     10 O4           1.3300     0.1510    -0.8410 os         1 I4C      -0.564400
     11 O5          -0.3610     2.3310     0.3110 oh         1 I4C      -0.637500
     12 O6          -3.1500     1.9950     0.2730 oh         1 I4C      -0.725500
     13 P4           2.5130     0.6210     0.1360 p5         1 I4C       1.276900
     14 O41          2.1160     1.9050     0.7680 o          1 I4C      -0.919833
     15 O42          2.7490    -0.4120     1.1780 o          1 I4C      -0.919833
     16 O43          3.7510     0.8200    -0.6630 o          1 I4C      -0.919833
     17 H1          -3.1430    -0.0590    -1.4760 h1         1 I4C       0.039700
     18 H2          -2.5560    -2.3710    -1.0810 h1         1 I4C       0.031700
     19 H3          -0.7990    -1.0370    -2.0740 h1         1 I4C       0.016700
     20 H4           0.1280    -0.3840     0.7700 h1         1 I4C       0.089700
     21 H5          -1.0850     1.4030    -1.4000 h1         1 I4C       0.016700
     22 H6          -2.1160     0.5470     1.3520 h1         1 I4C       0.031700
     23 HO1         -4.5910     0.2650     0.4280 ho         1 I4C       0.505000
     24 HO2         -2.8710    -2.0520     1.2810 ho         1 I4C       0.488500
     25 HO3         -0.1760    -2.9550    -0.1190 ho         1 I4C       0.452500
     26 HO5          0.6240     2.1550     0.4580 ho         1 I4C       0.452500
     27 HO6         -2.5320     2.7560     0.4000 ho         1 I4C       0.488500
@<TRIPOS>BOND
     1     1     2 1   
     2     1     6 1   
     3     1     7 1   
     4     1    17 1   
     5     2     3 1   
     6     2     8 1   
     7     2    18 1   
     8     3     4 1   
     9     3     9 1   
    10     3    19 1   
    11     4     5 1   
    12     4    10 1   
    13     4    20 1   
    14     5     6 1   
    15     5    11 1   
    16     5    21 1   
    17     6    12 1   
    18     6    22 1   
    19     7    23 1   
    20     8    24 1   
    21     9    25 1   
    22    10    13 1   
    23    11    26 1   
    24    12    27 1   
    25    13    14 1   
    26    13    15 1   
    27    13    16 1   
@<TRIPOS>SUBSTRUCTURE
     1 I4C         1 TEMP              0 ****  ****    0 ROOT
