@<TRIPOS>MOLECULE
I4D
   27    27     1     0     0
SMALL
No Charge or Current Charge


@<TRIPOS>ATOM
      1 O5           0.3170     2.5290    -0.0970 oh         1 I4D      -0.633000
      2 C5           0.8480     1.2970     0.4260 c6         1 I4D       0.155800
      3 C6           2.2520     1.0540    -0.1980 c6         1 I4D       0.114300
      4 O6           3.1190     2.1770     0.0300 oh         1 I4D      -0.706000
      5 C4          -0.0860     0.0630     0.1680 c6         1 I4D       0.278300
      6 O4          -1.4170     0.3040     0.6890 os         1 I4D      -0.562400
      7 P4          -2.6790    -0.2530    -0.1300 p5         1 I4D       1.276900
      8 O43         -3.9230     0.0750     0.6150 o          1 I4D      -0.919500
      9 O42         -2.7230     0.3690    -1.4790 o          1 I4D      -0.919500
     10 O41         -2.5440    -1.7270    -0.2510 o          1 I4D      -0.919500
     11 C3           0.5680    -1.2390     0.7660 c6         1 I4D       0.155800
     12 O3          -0.2480    -2.4240     0.6340 oh         1 I4D      -0.633000
     13 C2           1.9960    -1.4780     0.1640 c6         1 I4D       0.114300
     14 O2           1.9600    -1.7750    -1.2440 oh         1 I4D      -0.706000
     15 C1           2.9060    -0.2320     0.3930 c6         1 I4D       0.097300
     16 O1           4.2040    -0.4390    -0.2060 oh         1 I4D      -0.750000
     17 H5           1.1080     3.1080    -0.1920 ho         1 I4D       0.455500
     18 HA           0.9760     1.3990     1.5140 h1         1 I4D       0.013700
     19 H6           2.1260     0.9120    -1.2820 h1         1 I4D       0.023200
     20 H4          -0.1530    -0.0690    -0.9230 h1         1 I4D       0.090700
     21 HB           4.0260     1.8040    -0.0900 ho         1 I4D       0.480500
     22 H1           3.0190    -0.0890     1.4790 h1         1 I4D       0.037700
     23 H3           0.7080    -1.0500     1.8410 h1         1 I4D       0.013700
     24 HC          -1.1490    -2.1260     0.2880 ho         1 I4D       0.455500
     25 H2           2.4500    -2.3240     0.7010 h1         1 I4D       0.023200
     26 HD           2.8600    -1.5270    -1.5640 ho         1 I4D       0.480500
     27 HE           4.6960    -1.0680     0.3740 ho         1 I4D       0.484000
@<TRIPOS>BOND
     1     1     2 1   
     2     1    17 1   
     3     2     3 1   
     4     2     5 1   
     5     2    18 1   
     6     3     4 1   
     7     3    15 1   
     8     3    19 1   
     9     4    21 1   
    10     5     6 1   
    11     5    11 1   
    12     5    20 1   
    13     6     7 1   
    14     7     8 1   
    15     7     9 1   
    16     7    10 1   
    17    11    12 1   
    18    11    13 1   
    19    11    23 1   
    20    12    24 1   
    21    13    14 1   
    22    13    15 1   
    23    13    25 1   
    24    14    26 1   
    25    15    16 1   
    26    15    22 1   
    27    16    27 1   
@<TRIPOS>SUBSTRUCTURE
     1 I4D         1 TEMP              0 ****  ****    0 ROOT
