@<TRIPOS>MOLECULE
I4D
   27    27     1     0     0
SMALL
bcc


@<TRIPOS>ATOM
      1 O5           0.1460     2.2870    -0.0960 oh         1 I4D      -0.510800
      2 C5           0.7870     1.1480     0.4260 c6         1 I4D       0.132600
      3 C6           2.1960     1.0170    -0.1390 c6         1 I4D       0.091100
      4 O6           2.9060     2.1790     0.2390 oh         1 I4D      -0.583800
      5 C4          -0.0770    -0.0750     0.1150 c6         1 I4D       0.255100
      6 O4          -1.3050     0.0650     0.7520 os         1 I4D      -0.539200
      7 P4          -2.7920     0.1010    -0.0900 p5         1 I4D       1.276900
      8 O43         -3.4930     1.2900     0.5580 o          1 I4D      -0.919500
      9 O42         -2.4390     0.2870    -1.5620 o          1 I4D      -0.919500
     10 O41         -3.4410    -1.2410     0.2340 o          1 I4D      -0.919500
     11 C3           0.6300    -1.3350     0.6190 c6         1 I4D       0.132600
     12 O3          -0.1730    -2.4460     0.3090 oh         1 I4D      -0.510800
     13 C2           2.0370    -1.4790     0.0450 c6         1 I4D       0.091100
     14 O2           1.9550    -1.6770    -1.3470 oh         1 I4D      -0.583800
     15 C1           2.8680    -0.2430     0.3840 c6         1 I4D       0.074100
     16 O1           4.1510    -0.3130    -0.2060 oh         1 I4D      -0.627800
     17 H5           0.7190     3.0420     0.0740 ho         1 I4D       0.356500
     18 HA           0.8750     1.2290     1.5240 h1         1 I4D       0.013700
     19 H6           2.1270     0.9510    -1.2340 h1         1 I4D       0.023200
     20 H4          -0.2040    -0.1450    -0.9720 h1         1 I4D       0.090700
     21 HB           3.7560     2.1730    -0.2130 ho         1 I4D       0.381500
     22 H1           2.9490    -0.1700     1.4780 h1         1 I4D       0.037700
     23 H3           0.7500    -1.2370     1.7110 h1         1 I4D       0.013700
     24 HC           0.2360    -3.2260     0.6970 ho         1 I4D       0.356500
     25 H2           2.5150    -2.3500     0.5280 h1         1 I4D       0.023200
     26 HD           2.8520    -1.6230    -1.6960 ho         1 I4D       0.381500
     27 HE           4.6880    -0.9380     0.2920 ho         1 I4D       0.385000
@<TRIPOS>BOND
     1     1     2 1   
     2     1    17 1   
     3     2     3 1   
     4     2     5 1   
     5     2    18 1   
     6     3     4 1   
     7     3    15 1   
     8     3    19 1   
     9     4    21 1   
    10     5     6 1   
    11     5    11 1   
    12     5    20 1   
    13     6     7 1   
    14     7     8 1   
    15     7     9 1   
    16     7    10 1   
    17    11    12 1   
    18    11    13 1   
    19    11    23 1   
    20    12    24 1   
    21    13    14 1   
    22    13    15 1   
    23    13    25 1   
    24    14    26 1   
    25    15    16 1   
    26    15    22 1   
    27    16    27 1   
@<TRIPOS>SUBSTRUCTURE
     1 I4D         1 TEMP              0 ****  ****    0 ROOT
