@<TRIPOS>MOLECULE
I4G
   21    20     1     0     0
SMALL
bcc


@<TRIPOS>ATOM
      1 N            0.0020    -0.0180    -0.2080 n7         1 I4G      -0.803200
      2 CB           1.2420    -0.7100     0.0670 c3         1 I4G       0.172800
      3 CG           2.4740     0.0990    -0.3310 c3         1 I4G      -0.065700
      4 CD1          2.5670     1.4230     0.4210 c3         1 I4G      -0.084600
      5 CD2          3.7360    -0.7290    -0.1070 c3         1 I4G      -0.084600
      6 CA          -1.1700    -0.8100     0.0900 c3         1 I4G       0.018800
      7 C           -2.4610     0.0250     0.1610 c          1 I4G       0.929600
      8 O           -2.3360     1.2530     0.3360 o          1 I4G      -0.842800
      9 OXT         -3.5290    -0.6120     0.0740 o          1 I4G      -0.842800
     10 H2          -0.0580     0.8320     0.3380 hn         1 I4G       0.373800
     11 HB2          1.3370    -1.0060     1.1290 h1         1 I4G       0.006700
     12 HB3          1.2430    -1.6430    -0.5050 h1         1 I4G       0.006700
     13 HG           2.3920     0.3160    -1.4020 hc         1 I4G       0.053700
     14 HD13         1.7160     2.0770     0.2220 hc         1 I4G       0.024533
     15 HD11         2.6150     1.2560     1.5010 hc         1 I4G       0.024533
     16 HD12         3.4640     1.9720     0.1330 hc         1 I4G       0.024533
     17 HD23         3.6960    -1.6750    -0.6520 hc         1 I4G       0.024533
     18 HD22         4.6250    -0.1930    -0.4420 hc         1 I4G       0.024533
     19 HD21         3.8720    -0.9610     0.9520 hc         1 I4G       0.024533
     20 HA2         -1.2860    -1.5920    -0.6670 h1         1 I4G       0.007200
     21 HA3         -1.0850    -1.3470     1.0540 h1         1 I4G       0.007200
@<TRIPOS>BOND
     1     1     2 1   
     2     1     6 1   
     3     1    10 1   
     4     2     3 1   
     5     2    11 1   
     6     2    12 1   
     7     3     4 1   
     8     3     5 1   
     9     3    13 1   
    10     4    14 1   
    11     4    15 1   
    12     4    16 1   
    13     5    17 1   
    14     5    18 1   
    15     5    19 1   
    16     6     7 1   
    17     6    20 1   
    18     6    21 1   
    19     7     8 1   
    20     7     9 1   
@<TRIPOS>SUBSTRUCTURE
     1 I4G         1 TEMP              0 ****  ****    0 ROOT
