@<TRIPOS>MOLECULE
I4G
   21    20     1     0     0
SMALL
No Charge or Current Charge


@<TRIPOS>ATOM
      1 N            0.0090    -0.0450    -0.1650 n7         1 I4G      -0.803200
      2 CB           1.2710    -0.7490     0.1200 c3         1 I4G       0.172800
      3 CG           2.4990     0.0860    -0.3290 c3         1 I4G      -0.065700
      4 CD1          2.6300     1.4210     0.4470 c3         1 I4G      -0.084600
      5 CD2          3.7990    -0.7430    -0.2200 c3         1 I4G      -0.084600
      6 CA          -1.2400    -0.7710     0.2590 c3         1 I4G       0.018800
      7 C           -2.6110    -0.0090     0.0370 c          1 I4G       0.929600
      8 O           -2.8120     1.0350     0.6550 o          1 I4G      -0.842800
      9 OXT         -3.4250    -0.4660    -0.7610 o          1 I4G      -0.842800
     10 H2           0.0350     0.8570     0.3250 hn         1 I4G       0.373800
     11 HB2          1.3550    -0.9590     1.1950 h1         1 I4G       0.006700
     12 HB3          1.2820    -1.7120    -0.4090 h1         1 I4G       0.006700
     13 HG           2.3640     0.3300    -1.3900 hc         1 I4G       0.053700
     14 HD13         1.7510     2.0570     0.2930 hc         1 I4G       0.024533
     15 HD11         2.7390     1.2370     1.5230 hc         1 I4G       0.024533
     16 HD12         3.5090     1.9810     0.1050 hc         1 I4G       0.024533
     17 HD23         3.7250    -1.6610    -0.8150 hc         1 I4G       0.024533
     18 HD22         4.6580    -0.1700    -0.5890 hc         1 I4G       0.024533
     19 HD21         3.9960    -1.0250     0.8220 hc         1 I4G       0.024533
     20 HA2         -1.3000    -1.7320    -0.2700 h1         1 I4G       0.007200
     21 HA3         -1.1770    -1.0050     1.3310 h1         1 I4G       0.007200
@<TRIPOS>BOND
     1     1     2 1   
     2     1     6 1   
     3     1    10 1   
     4     2     3 1   
     5     2    11 1   
     6     2    12 1   
     7     3     4 1   
     8     3     5 1   
     9     3    13 1   
    10     4    14 1   
    11     4    15 1   
    12     4    16 1   
    13     5    17 1   
    14     5    18 1   
    15     5    19 1   
    16     6     7 1   
    17     6    20 1   
    18     6    21 1   
    19     7     8 1   
    20     7     9 1   
@<TRIPOS>SUBSTRUCTURE
     1 I4G         1 TEMP              0 ****  ****    0 ROOT
