@<TRIPOS>MOLECULE
I4H
   27    27     1     0     0
SMALL
bcc


@<TRIPOS>ATOM
      1 C18         13.1640   -10.3460   -37.1120 ca         1 I4H      -0.162600
      2 C20         11.3730    -8.7610   -37.4200 ca         1 I4H      -0.155000
      3 C22         11.0860    -6.6810   -36.0800 c3         1 I4H      -0.056800
      4 O01         15.1180   -11.6790   -37.1920 o          1 I4H      -0.589100
      5 C02         13.9280   -11.5870   -37.4610 c          1 I4H       0.679700
      6 N03         13.2350   -12.5520   -38.0820 ns         1 I4H      -0.567900
      7 C04         13.8220   -13.8110   -38.4920 c3         1 I4H       0.103000
      8 C05         13.8370   -14.8580   -37.3890 c3         1 I4H      -0.118100
      9 C19         12.0080    -9.9390   -37.7730 ca         1 I4H      -0.066000
     10 C21         11.8330    -7.9440   -36.3890 ca         1 I4H       0.014700
     11 C23         12.9990    -8.3760   -35.7490 ca         1 I4H      -0.182200
     12 N24         13.5790    -7.6100   -34.6540 no         1 I4H       0.311200
     13 O25         14.7830    -7.6130   -34.5420 o          1 I4H      -0.202500
     14 O26         12.8310    -7.0270   -33.9070 o          1 I4H      -0.202500
     15 C27         13.6700    -9.5330   -36.1100 ca         1 I4H      -0.020000
     16 H1          10.4920    -8.4540   -37.9680 ha         1 I4H       0.145000
     17 H2          10.4960    -6.7810   -35.1700 hc         1 I4H       0.062367
     18 H3          11.7450    -5.8240   -35.9520 hc         1 I4H       0.062367
     19 H4          10.4020    -6.4580   -36.8960 hc         1 I4H       0.062367
     20 H5          12.2320   -12.4780   -38.1390 hn         1 I4H       0.311500
     21 H6          13.2440   -14.1720   -39.3430 h1         1 I4H       0.055700
     22 H7          14.8320   -13.6240   -38.8530 h1         1 I4H       0.055700
     23 H8          14.2660   -15.7890   -37.7610 hc         1 I4H       0.043700
     24 H9          14.4340   -14.5290   -36.5390 hc         1 I4H       0.043700
     25 H10         12.8280   -15.0720   -37.0360 hc         1 I4H       0.043700
     26 H11         11.5990   -10.5140   -38.5930 ha         1 I4H       0.139000
     27 H12         14.5790    -9.8200   -35.5990 ha         1 I4H       0.188000
@<TRIPOS>BOND
     1     1     5 1   
     2     1     9 ar  
     3     1    15 ar  
     4     2     9 ar  
     5     2    10 ar  
     6     2    16 1   
     7     3    10 1   
     8     3    17 1   
     9     3    18 1   
    10     3    19 1   
    11     4     5 2   
    12     5     6 1   
    13     6     7 1   
    14     6    20 1   
    15     7     8 1   
    16     7    21 1   
    17     7    22 1   
    18     8    23 1   
    19     8    24 1   
    20     8    25 1   
    21     9    26 1   
    22    10    11 ar  
    23    11    12 1   
    24    11    15 ar  
    25    12    13 1   
    26    12    14 1   
    27    15    27 1   
@<TRIPOS>SUBSTRUCTURE
     1 I4H         1 TEMP              0 ****  ****    0 ROOT
