@<TRIPOS>MOLECULE
I4H
   27    27     1     0     0
SMALL
No Charge or Current Charge


@<TRIPOS>ATOM
      1 C18         13.1850   -10.3900   -36.9750 ca         1 I4H      -0.162600
      2 C20         11.2730    -8.8970   -37.2780 ca         1 I4H      -0.137000
      3 C22         11.0430    -6.6760   -36.1060 c3         1 I4H      -0.056800
      4 O01         15.0190   -11.9180   -36.7400 o          1 I4H      -0.589100
      5 C02         13.9480   -11.6630   -37.2740 c          1 I4H       0.612700
      6 N03         13.3800   -12.5290   -38.1860 ns         1 I4H      -0.500900
      7 C04         13.9470   -13.8200   -38.5820 c3         1 I4H       0.103000
      8 C05         13.6830   -14.9130   -37.5320 c3         1 I4H      -0.118100
      9 C19         11.9450   -10.0910   -37.5830 ca         1 I4H      -0.048000
     10 C21         11.8080    -7.9720   -36.3630 ca         1 I4H       0.014700
     11 C23         13.0460    -8.2660   -35.7350 ca         1 I4H      -0.182200
     12 N24         13.6700    -7.3400   -34.7440 no         1 I4H       0.691200
     13 O25         14.9030    -7.2250   -34.7650 o          1 I4H      -0.392500
     14 O26         12.9540    -6.8700   -33.8520 o          1 I4H      -0.392500
     15 C27         13.7240    -9.4650   -36.0530 ca         1 I4H      -0.002000
     16 H1          10.3240    -8.6880   -37.7670 ha         1 I4H       0.127000
     17 H2          10.5440    -6.6990   -35.1300 hc         1 I4H       0.062367
     18 H3          11.7090    -5.8050   -36.1280 hc         1 I4H       0.062367
     19 H4          10.2690    -6.5050   -36.8630 hc         1 I4H       0.062367
     20 H5          12.4960   -12.2500   -38.5920 hn         1 I4H       0.311500
     21 H6          13.5010   -14.1200   -39.5390 h1         1 I4H       0.055700
     22 H7          15.0290   -13.7090   -38.7350 h1         1 I4H       0.055700
     23 H8          14.1030   -15.8690   -37.8650 hc         1 I4H       0.043700
     24 H9          14.1440   -14.6530   -36.5720 hc         1 I4H       0.043700
     25 H10         12.6060   -15.0470   -37.3760 hc         1 I4H       0.043700
     26 H11         11.4860   -10.7690   -38.2980 ha         1 I4H       0.121000
     27 H12         14.6760    -9.6850   -35.5700 ha         1 I4H       0.170000
@<TRIPOS>BOND
     1     1     5 1   
     2     1     9 ar  
     3     1    15 ar  
     4     2     9 ar  
     5     2    10 ar  
     6     2    16 1   
     7     3    10 1   
     8     3    17 1   
     9     3    18 1   
    10     3    19 1   
    11     4     5 2   
    12     5     6 1   
    13     6     7 1   
    14     6    20 1   
    15     7     8 1   
    16     7    21 1   
    17     7    22 1   
    18     8    23 1   
    19     8    24 1   
    20     8    25 1   
    21     9    26 1   
    22    10    11 ar  
    23    11    12 1   
    24    11    15 ar  
    25    12    13 1   
    26    12    14 1   
    27    15    27 1   
@<TRIPOS>SUBSTRUCTURE
     1 I4H         1 TEMP              0 ****  ****    0 ROOT
