@<TRIPOS>MOLECULE
I4I
   70    72     1     0     0
SMALL
No Charge or Current Charge


@<TRIPOS>ATOM
      1 C           -0.4190     0.1310     0.2940 c          1 I4I       0.592100
      2 N            1.6300     1.4240    -0.3010 ns         1 I4I      -0.471900
      3 O           -1.0270    -0.2350     1.2870 o          1 I4I      -0.583100
      4 CA           0.2370     1.5340     0.2130 c3         1 I4I      -0.008300
      5 CB          -0.6340     2.5720    -0.5710 c3         1 I4I       0.179300
      6 CAD         -3.5530    -2.5820     0.6430 c3         1 I4I      -0.080100
      7 OAG         -3.5590     0.2090    -1.8380 o          1 I4I      -0.486000
      8 OAH         -2.2490     2.8970     1.6820 o          1 I4I      -0.466000
      9 OAJ         -2.1360    -3.7900    -1.7950 oh         1 I4I      -0.660000
     10 CAK          2.9950    -2.0160     2.2980 ca         1 I4I      -0.164000
     11 CAL          6.4440     0.7110    -1.6190 ca         1 I4I      -0.093000
     12 CAM          3.9740    -2.3900     1.3620 ca         1 I4I       0.325900
     13 CAN          5.2200     0.9050    -2.2830 ca         1 I4I       0.298900
     14 CAO          1.6390    -2.2040     1.9860 ca         1 I4I      -0.065000
     15 CAP          6.4710     0.7060    -0.2130 ca         1 I4I      -0.137000
     16 CAQ          2.3640    -3.1140    -0.1360 ca         1 I4I       0.327900
     17 CAR         -0.1470    -2.9890     0.3330 c3         1 I4I      -0.032100
     18 NAS          3.6720    -2.9320     0.1620 nb         1 I4I      -0.669000
     19 NAT          4.0490     1.0890    -1.6280 nb         1 I4I      -0.647000
     20 NAV         -0.1860    -0.7090    -0.7810 ns         1 I4I      -0.493900
     21 OAX         -3.8850     0.1200     0.4340 os         1 I4I      -0.426100
     22 CAY          2.7490     1.2740     0.4910 c          1 I4I       0.523600
     23 CBA         -3.4430    -0.3820    -0.7750 c          1 I4I       0.611100
     24 CBB         -2.6930     2.3110     0.7030 c          1 I4I       0.584100
     25 CBC          1.3120    -2.7670     0.7380 ca         1 I4I      -0.136300
     26 CBD          5.2670     0.8960     0.4830 ca         1 I4I       0.177100
     27 CBE          4.0650     1.0840    -0.2570 ca         1 I4I       0.165500
     28 CBF         -5.1500     2.1980    -0.2200 c3         1 I4I      -0.082700
     29 CBH         -3.2930    -1.9210    -0.7430 c3         1 I4I      -0.133700
     30 CBI         -2.0010    -2.3900    -1.4950 c3         1 I4I       0.173300
     31 CBJ         -0.5650    -2.1310    -0.8980 c3         1 I4I       0.135700
     32 CBL         -4.0530     1.5530     0.6940 c3         1 I4I       0.140300
     33 OG1         -2.0190     2.1940    -0.4860 os         1 I4I      -0.442100
     34 CG2         -0.3300     2.6570    -2.0830 c3         1 I4I      -0.101100
     35 HN           1.8120     1.4370    -1.3010 hn         1 I4I       0.345500
     36 HA           0.2820     1.8820     1.2530 h1         1 I4I       0.127700
     37 HB          -0.4740     3.5720    -0.1430 h1         1 I4I       0.076700
     38 HAA         -7.2060     1.8470    -0.8960 hc         1 I4I       0.040033
     39 HAAA        -6.2740     0.3610    -0.6740 hc         1 I4I       0.040033
     40 HAAB        -6.8780     1.2470     0.7430 hc         1 I4I       0.040033
     41 HAB         -5.8410     3.6840     1.2390 hc         1 I4I       0.040033
     42 HABA        -4.5650     4.2820     0.1550 hc         1 I4I       0.040033
     43 HABB        -6.2190     4.0970    -0.4460 hc         1 I4I       0.040033
     44 HAD         -4.5950    -2.4280     0.9490 hc         1 I4I       0.052367
     45 HADA        -3.3770    -3.6640     0.6090 hc         1 I4I       0.052367
     46 HADB        -2.9170    -2.1530     1.4240 hc         1 I4I       0.052367
     47 HOAI         4.3430     1.0530     2.1460 ho         1 I4I       0.523000
     48 HOAJ        -2.9230    -3.8920    -2.3740 ho         1 I4I       0.450000
     49 HAL          7.3560     0.5670    -2.1930 ha         1 I4I       0.129000
     50 HAM          5.0330    -2.2510     1.5800 h4         1 I4I       0.017100
     51 HAN          5.1750     0.9130    -3.3710 h4         1 I4I       0.027100
     52 HAO          0.8650    -1.9140     2.6940 ha         1 I4I       0.137000
     53 HAP          7.4040     0.5590     0.3260 ha         1 I4I       0.140000
     54 HAQ          2.1530    -3.5550    -1.1100 h4         1 I4I       0.014100
     55 HAR         -0.2930    -4.0490     0.0950 hc         1 I4I       0.077700
     56 HARA        -0.8050    -2.7880     1.1820 hc         1 I4I       0.077700
     57 HNAV         0.3590    -0.3130    -1.5350 hn         1 I4I       0.312500
     58 HBF         -4.7630     2.2670    -1.2430 hc         1 I4I       0.084700
     59 HBH         -4.1080    -2.2620    -1.3930 hc         1 I4I       0.057700
     60 HBI         -2.0050    -1.8480    -2.4520 h1         1 I4I       0.048700
     61 HBJ          0.0960    -2.4940    -1.6970 h1         1 I4I       0.050700
     62 HBL         -4.4180     1.6560     1.7240 h1         1 I4I       0.105700
     63 HG2         -0.4190     1.6740    -2.5600 hc         1 I4I       0.053367
     64 HG2A        -1.0350     3.3390    -2.5730 hc         1 I4I       0.053367
     65 HG2B         0.6800     3.0460    -2.2610 hc         1 I4I       0.053367
     66 HAK          3.2910    -1.5820     3.2490 ha         1 I4I       0.130000
     67 CAA         -6.4550     1.3610    -0.2630 c3         1 I4I      -0.090600
     68 CAB         -5.4610     3.6520     0.2110 c3         1 I4I      -0.090600
     69 OAE          2.6760     1.2850     1.7170 o          1 I4I      -0.631100
     70 OAI          5.2800     0.8940     1.8540 oh         1 I4I      -0.536100
@<TRIPOS>BOND
     1     1     3 2   
     2     1     4 1   
     3     1    20 1   
     4     2     4 1   
     5     2    22 1   
     6     2    35 1   
     7     4     5 1   
     8     4    36 1   
     9     5    33 1   
    10     5    34 1   
    11     5    37 1   
    12     6    29 1   
    13     6    44 1   
    14     6    45 1   
    15     6    46 1   
    16     7    23 2   
    17     8    24 2   
    18     9    30 1   
    19     9    48 1   
    20    10    12 ar  
    21    10    14 ar  
    22    10    66 1   
    23    11    13 ar  
    24    11    15 ar  
    25    11    49 1   
    26    12    18 ar  
    27    12    50 1   
    28    13    19 ar  
    29    13    51 1   
    30    14    25 ar  
    31    14    52 1   
    32    15    26 ar  
    33    15    53 1   
    34    16    18 ar  
    35    16    25 ar  
    36    16    54 1   
    37    17    25 1   
    38    17    31 1   
    39    17    55 1   
    40    17    56 1   
    41    19    27 ar  
    42    20    31 1   
    43    20    57 1   
    44    21    23 1   
    45    21    32 1   
    46    22    27 1   
    47    22    69 2   
    48    23    29 1   
    49    24    32 1   
    50    24    33 1   
    51    26    27 ar  
    52    26    70 1   
    53    28    32 1   
    54    28    58 1   
    55    28    67 1   
    56    28    68 1   
    57    29    30 1   
    58    29    59 1   
    59    30    31 1   
    60    30    60 1   
    61    31    61 1   
    62    32    62 1   
    63    34    63 1   
    64    34    64 1   
    65    34    65 1   
    66    38    67 1   
    67    39    67 1   
    68    40    67 1   
    69    41    68 1   
    70    42    68 1   
    71    43    68 1   
    72    47    70 1   
@<TRIPOS>SUBSTRUCTURE
     1 I4I         1 TEMP              0 ****  ****    0 ROOT
