@<TRIPOS>MOLECULE
I4I
   70    72     1     0     0
SMALL
abcg2


@<TRIPOS>ATOM
      1 C           -0.4180     0.0940     0.3070 c          1 I4I       0.592100
      2 N            1.5860     1.4450    -0.2230 ns         1 I4I      -0.471900
      3 O           -0.9570    -0.2480     1.3450 o          1 I4I      -0.583100
      4 CA           0.2170     1.4940     0.2160 c3         1 I4I      -0.008300
      5 CB          -0.6370     2.4650    -0.6330 c3         1 I4I       0.179300
      6 CAD         -3.3830    -2.4960     0.8130 c3         1 I4I      -0.080100
      7 OAG         -3.5750     0.1180    -1.8070 o          1 I4I      -0.486000
      8 OAH         -2.3060     2.9890     1.5100 o          1 I4I      -0.466000
      9 OAJ         -2.1000    -3.7530    -1.6440 oh         1 I4I      -0.660000
     10 CAK          3.2170    -1.8810     1.7280 ca         1 I4I      -0.164000
     11 CAL          6.3040     0.5550    -1.1970 ca         1 I4I      -0.093000
     12 CAM          4.0460    -2.3590     0.7270 ca         1 I4I       0.325900
     13 CAN          5.1100     0.6650    -1.9100 ca         1 I4I       0.298900
     14 CAO          1.8480    -2.0550     1.5970 ca         1 I4I      -0.065000
     15 CAP          6.2930     0.7260     0.1690 ca         1 I4I      -0.137000
     16 CAQ          2.2770    -3.1600    -0.4550 ca         1 I4I       0.327900
     17 CAR         -0.1280    -2.9210     0.2610 c3         1 I4I      -0.032100
     18 NAS          3.5870    -2.9930    -0.3480 nb         1 I4I      -0.669000
     19 NAT          3.9660     0.9290    -1.3160 nb         1 I4I      -0.647000
     20 NAV         -0.3260    -0.6660    -0.7950 ns         1 I4I      -0.493900
     21 OAX         -3.7960     0.1540     0.4280 os         1 I4I      -0.426100
     22 CAY          2.6160     1.3520     0.6290 c          1 I4I       0.523600
     23 CBA         -3.5450    -0.4330    -0.7380 c          1 I4I       0.611100
     24 CBB         -2.6810     2.2860     0.6090 c          1 I4I       0.584100
     25 CBC          1.3450    -2.7110     0.4790 ca         1 I4I      -0.136300
     26 CBD          5.0800     1.0020     0.8070 ca         1 I4I       0.177100
     27 CBE          3.9360     1.0940     0.0040 ca         1 I4I       0.165500
     28 CBF         -5.0710     2.2120    -0.2970 c3         1 I4I      -0.082700
     29 CBH         -3.2930    -1.9250    -0.5950 c3         1 I4I      -0.133700
     30 CBI         -2.0620    -2.3610    -1.4250 c3         1 I4I       0.173300
     31 CBJ         -0.6280    -2.0830    -0.9250 c3         1 I4I       0.135700
     32 CBL         -4.0200     1.5540     0.6070 c3         1 I4I       0.140300
     33 OG1         -2.0030     2.0550    -0.5020 os         1 I4I      -0.442100
     34 CG2         -0.3490     2.4830    -2.1200 c3         1 I4I      -0.101100
     35 HN           1.8190     1.2980    -1.1970 hn         1 I4I       0.345500
     36 HA           0.2210     1.8650     1.2400 h1         1 I4I       0.127700
     37 HB          -0.5020     3.4720    -0.2340 h1         1 I4I       0.076700
     38 HAA         -7.1250     1.9230    -0.8770 hc         1 I4I       0.040033
     39 HAAA        -6.2530     0.4100    -0.7100 hc         1 I4I       0.040033
     40 HAAB        -6.7570     1.3010     0.7280 hc         1 I4I       0.040033
     41 HAB         -5.6550     3.6410     1.2430 hc         1 I4I       0.040033
     42 HABA        -4.4570     4.2800     0.1140 hc         1 I4I       0.040033
     43 HABB        -6.1230     4.0890    -0.3960 hc         1 I4I       0.040033
     44 HAD         -4.3930    -2.3890     1.2070 hc         1 I4I       0.052367
     45 HADA        -3.1570    -3.5610     0.7890 hc         1 I4I       0.052367
     46 HADB        -2.6980    -2.0150     1.5040 hc         1 I4I       0.052367
     47 HOAI         4.1250     1.3240     2.3890 ho         1 I4I       0.523000
     48 HOAJ        -2.8640    -3.9560    -2.1920 ho         1 I4I       0.450000
     49 HAL          7.2270     0.3350    -1.7160 ha         1 I4I       0.129000
     50 HAM          5.1200    -2.2320     0.7940 h4         1 I4I       0.017100
     51 HAN          5.0920     0.5360    -2.9850 h4         1 I4I       0.027100
     52 HAO          1.1750    -1.6820     2.3580 ha         1 I4I       0.137000
     53 HAP          7.2010     0.6450     0.7530 ha         1 I4I       0.140000
     54 HAQ          1.9370    -3.6930    -1.3400 h4         1 I4I       0.014100
     55 HAR         -0.3160    -3.9690     0.0230 hc         1 I4I       0.077700
     56 HARA        -0.6680    -2.7020     1.1760 hc         1 I4I       0.077700
     57 HNAV         0.1400    -0.2670    -1.5920 hn         1 I4I       0.312500
     58 HBF         -4.6970     2.2730    -1.3190 hc         1 I4I       0.084700
     59 HBH         -4.1320    -2.3510    -1.1630 hc         1 I4I       0.057700
     60 HBI         -2.1370    -1.8300    -2.3820 h1         1 I4I       0.048700
     61 HBJ         -0.0150    -2.3950    -1.7760 h1         1 I4I       0.050700
     62 HBL         -4.3920     1.6120     1.6330 h1         1 I4I       0.105700
     63 HG2         -0.5110     1.5160    -2.5980 hc         1 I4I       0.053367
     64 HG2A        -1.0060     3.2020    -2.6060 hc         1 I4I       0.053367
     65 HG2B         0.6710     2.8090    -2.3120 hc         1 I4I       0.053367
     66 HAK          3.6350    -1.3830     2.5920 ha         1 I4I       0.130000
     67 CAA         -6.3670     1.4080    -0.2860 c3         1 I4I      -0.090600
     68 CAB         -5.3310     3.6350     0.2000 c3         1 I4I      -0.090600
     69 OAE          2.5050     1.4670     1.8510 o          1 I4I      -0.631100
     70 OAI          5.0600     1.1550     2.1280 oh         1 I4I      -0.536100
@<TRIPOS>BOND
     1     1     3 2   
     2     1     4 1   
     3     1    20 1   
     4     2     4 1   
     5     2    22 1   
     6     2    35 1   
     7     4     5 1   
     8     4    36 1   
     9     5    33 1   
    10     5    34 1   
    11     5    37 1   
    12     6    29 1   
    13     6    44 1   
    14     6    45 1   
    15     6    46 1   
    16     7    23 2   
    17     8    24 2   
    18     9    30 1   
    19     9    48 1   
    20    10    12 ar  
    21    10    14 ar  
    22    10    66 1   
    23    11    13 ar  
    24    11    15 ar  
    25    11    49 1   
    26    12    18 ar  
    27    12    50 1   
    28    13    19 ar  
    29    13    51 1   
    30    14    25 ar  
    31    14    52 1   
    32    15    26 ar  
    33    15    53 1   
    34    16    18 ar  
    35    16    25 ar  
    36    16    54 1   
    37    17    25 1   
    38    17    31 1   
    39    17    55 1   
    40    17    56 1   
    41    19    27 ar  
    42    20    31 1   
    43    20    57 1   
    44    21    23 1   
    45    21    32 1   
    46    22    27 1   
    47    22    69 2   
    48    23    29 1   
    49    24    32 1   
    50    24    33 1   
    51    26    27 ar  
    52    26    70 1   
    53    28    32 1   
    54    28    58 1   
    55    28    67 1   
    56    28    68 1   
    57    29    30 1   
    58    29    59 1   
    59    30    31 1   
    60    30    60 1   
    61    31    61 1   
    62    32    62 1   
    63    34    63 1   
    64    34    64 1   
    65    34    65 1   
    66    38    67 1   
    67    39    67 1   
    68    40    67 1   
    69    41    68 1   
    70    42    68 1   
    71    43    68 1   
    72    47    70 1   
@<TRIPOS>SUBSTRUCTURE
     1 I4I         1 TEMP              0 ****  ****    0 ROOT
