@<TRIPOS>MOLECULE
I4L
   59    62     1     0     0
SMALL
abcg2


@<TRIPOS>ATOM
      1 C1          -8.2250   -59.2830    41.6070 ca         1 I4L       0.255100
      2 C2          -9.6370   -59.1760    41.4710 ca         1 I4L       0.180100
      3 O2         -10.0710   -58.1150    40.8140 oh         1 I4L      -0.517100
      4 C3          -8.5490   -61.3430    42.8630 ca         1 I4L       0.024000
      5 O3         -10.2950   -63.2340    43.9080 o          1 I4L      -0.525100
      6 C4          -9.9110   -61.2440    42.7200 ca         1 I4L      -0.145600
      7 O4         -12.4070   -59.0650    41.2730 o          1 I4L      -0.569100
      8 C5         -10.4660   -60.1520    42.0190 ca         1 I4L      -0.191600
      9 C6         -11.9190   -60.0200    41.8680 c          1 I4L       0.617300
     10 O6          -8.8750   -63.5600    38.4980 o          1 I4L      -0.746000
     11 O5          -7.8370   -61.9390    37.3580 o          1 I4L      -0.746000
     12 O1          -7.5270   -58.3060    41.0550 oh         1 I4L      -0.508100
     13 O11         -5.6730   -61.1930    43.7420 o          1 I4L      -0.569000
     14 S           -5.9630   -60.6380    42.4370 sy         1 I4L       1.149600
     15 O           -5.3250   -59.3820    42.0370 o          1 I4L      -0.569000
     16 N           -5.5630   -61.7640    41.3080 n3         1 I4L      -0.696500
     17 C17         -5.8110   -61.3960    39.9090 c6         1 I4L       0.158300
     18 C16         -5.0680   -62.3510    38.9890 c6         1 I4L       0.113000
     19 N1          -5.4030   -63.7290    39.2790 n          1 I4L      -0.413800
     20 C18         -5.7630   -64.7000    38.3940 c          1 I4L       0.635100
     21 O10         -5.8690   -65.8640    38.7570 o          1 I4L      -0.631100
     22 C19         -6.0500   -64.3280    36.9560 c3         1 I4L      -0.160400
     23 C20         -7.5690   -64.2140    36.6400 c3         1 I4L       0.084000
     24 O9          -8.2100   -65.4310    36.9200 oh         1 I4L      -0.682000
     25 C22         -7.7130   -63.8930    35.1560 c3         1 I4L      -0.179400
     26 C23         -9.1580   -63.8690    34.6240 c          1 I4L       0.728000
     27 O8         -10.0390   -63.4060    35.3760 o          1 I4L      -0.753000
     28 O7          -9.3220   -64.2790    33.4550 o          1 I4L      -0.753000
     29 C21         -8.1630   -63.1200    37.5650 c          1 I4L       0.728000
     30 C15         -5.1490   -64.0680    40.6640 c6         1 I4L       0.113000
     31 C14         -5.9360   -63.1550    41.5850 c6         1 I4L       0.158300
     32 C           -7.7130   -60.3770    42.2970 ca         1 I4L      -0.377500
     33 C13        -10.7710   -62.2900    43.3100 c          1 I4L       0.604300
     34 C12        -12.2360   -62.1500    43.1390 ca         1 I4L      -0.107600
     35 C11        -13.0790   -63.1180    43.6750 ca         1 I4L      -0.072000
     36 C10        -14.4510   -63.0070    43.5270 ca         1 I4L      -0.102000
     37 C9         -14.9950   -61.9260    42.8420 ca         1 I4L      -0.111000
     38 C8         -14.1650   -60.9570    42.3050 ca         1 I4L      -0.064000
     39 C7         -12.7840   -61.0630    42.4490 ca         1 I4L      -0.117600
     40 H1         -11.0540   -58.1580    40.7920 ho         1 I4L       0.510000
     41 H2          -8.1320   -62.1690    43.4240 ha         1 I4L       0.145000
     42 H           -6.5760   -58.4140    41.2610 ho         1 I4L       0.517000
     43 H13         -5.4410   -60.3900    39.7190 h1         1 I4L       0.079200
     44 H14         -6.8800   -61.4280    39.6810 h1         1 I4L       0.079200
     45 H11         -3.9900   -62.2070    39.1140 h1         1 I4L       0.053950
     46 H12         -5.3300   -62.0840    37.9720 h1         1 I4L       0.053950
     47 H16         -5.6390   -65.1340    36.3420 hc         1 I4L       0.042200
     48 H15         -5.5500   -63.4170    36.6360 hc         1 I4L       0.042200
     49 H21         -8.7250   -65.2060    37.7190 ho         1 I4L       0.470000
     50 H19         -7.1270   -64.6130    34.5750 hc         1 I4L       0.008200
     51 H18         -7.2620   -62.9150    34.9590 hc         1 I4L       0.008200
     52 H10         -5.4410   -65.0970    40.8510 h1         1 I4L       0.053950
     53 H9          -4.0800   -63.9720    40.8810 h1         1 I4L       0.053950
     54 H8          -7.0100   -63.3110    41.4200 h1         1 I4L       0.079200
     55 H7          -5.7000   -63.4050    42.6170 h1         1 I4L       0.079200
     56 H6         -12.6590   -63.9600    44.2080 ha         1 I4L       0.135000
     57 H5         -15.1000   -63.7640    43.9460 ha         1 I4L       0.108000
     58 H4         -16.0670   -61.8410    42.7260 ha         1 I4L       0.109000
     59 H3         -14.5900   -60.1170    41.7730 ha         1 I4L       0.134000
@<TRIPOS>BOND
     1     1     2 ar  
     2     1    12 1   
     3     1    32 ar  
     4     2     3 1   
     5     2     8 ar  
     6     3    40 1   
     7     4     6 ar  
     8     4    32 ar  
     9     4    41 1   
    10     5    33 2   
    11     6     8 ar  
    12     6    33 1   
    13     7     9 2   
    14     8     9 1   
    15     9    39 1   
    16    10    29 1   
    17    11    29 1   
    18    12    42 1   
    19    13    14 2   
    20    14    15 2   
    21    14    16 1   
    22    14    32 1   
    23    16    17 1   
    24    16    31 1   
    25    17    18 1   
    26    17    43 1   
    27    17    44 1   
    28    18    19 1   
    29    18    45 1   
    30    18    46 1   
    31    19    20 1   
    32    19    30 1   
    33    20    21 2   
    34    20    22 1   
    35    22    23 1   
    36    22    47 1   
    37    22    48 1   
    38    23    24 1   
    39    23    25 1   
    40    23    29 1   
    41    24    49 1   
    42    25    26 1   
    43    25    50 1   
    44    25    51 1   
    45    26    27 1   
    46    26    28 1   
    47    30    31 1   
    48    30    52 1   
    49    30    53 1   
    50    31    54 1   
    51    31    55 1   
    52    33    34 1   
    53    34    35 ar  
    54    34    39 ar  
    55    35    36 ar  
    56    35    56 1   
    57    36    37 ar  
    58    36    57 1   
    59    37    38 ar  
    60    37    58 1   
    61    38    39 ar  
    62    38    59 1   
@<TRIPOS>SUBSTRUCTURE
     1 I4L         1 TEMP              0 ****  ****    0 ROOT
