@<TRIPOS>MOLECULE
I4L
   59    62     1     0     0
SMALL
No Charge or Current Charge


@<TRIPOS>ATOM
      1 C1          -8.0260   -59.5630    42.7780 ca         1 I4L       0.255100
      2 C2          -9.2500   -58.8430    42.7440 ca         1 I4L       0.180100
      3 O2          -9.2240   -57.4770    42.5930 oh         1 I4L      -0.517100
      4 C3          -9.2660   -61.6360    43.0660 ca         1 I4L       0.024000
      5 O3         -11.7670   -62.9330    43.3250 o          1 I4L      -0.525100
      6 C4         -10.4900   -60.9340    43.0380 ca         1 I4L      -0.145600
      7 O4         -11.8220   -57.5460    42.6980 o          1 I4L      -0.569100
      8 C5         -10.4920   -59.5230    42.8730 ca         1 I4L      -0.191600
      9 C6         -11.8040   -58.7660    42.8390 c          1 I4L       0.617300
     10 O6          -5.8650   -66.6680    37.6610 o          1 I4L      -0.746000
     11 O5          -7.7150   -65.5960    37.9360 o          1 I4L      -0.746000
     12 O1          -6.8380   -58.8870    42.6730 oh         1 I4L      -0.508100
     13 O11         -6.7600   -63.2620    43.4520 o          1 I4L      -0.569000
     14 S           -6.5190   -61.9130    42.9350 sy         1 I4L       1.149600
     15 O           -5.4750   -61.0340    43.4710 o          1 I4L      -0.569000
     16 N           -6.1750   -62.0580    41.2790 n3         1 I4L      -0.696500
     17 C17         -7.2760   -62.5780    40.4300 c6         1 I4L       0.158300
     18 C16         -6.9510   -62.4930    38.9140 c6         1 I4L       0.113000
     19 N1          -5.6040   -63.0140    38.5160 n          1 I4L      -0.413800
     20 C18         -5.2530   -63.1960    37.1530 c          1 I4L       0.635100
     21 O10         -4.0810   -63.0850    36.8100 o          1 I4L      -0.631100
     22 C19         -6.3260   -63.5840    36.1070 c3         1 I4L      -0.160400
     23 C20         -6.4420   -65.1290    35.8980 c3         1 I4L       0.084000
     24 O9          -5.1910   -65.5840    35.3300 oh         1 I4L      -0.682000
     25 C22         -7.5770   -65.4340    34.8660 c3         1 I4L      -0.179400
     26 C23         -7.7260   -66.9480    34.5940 c          1 I4L       0.728000
     27 O8          -8.4750   -67.5940    35.3110 o          1 I4L      -0.753000
     28 O7          -7.1250   -67.4370    33.6480 o          1 I4L      -0.753000
     29 C21         -6.7170   -65.8710    37.2810 c          1 I4L       0.728000
     30 C15         -4.5210   -62.6990    39.4970 c6         1 I4L       0.113000
     31 C14         -4.9280   -62.8040    40.9880 c6         1 I4L       0.158300
     32 C           -8.0380   -60.9620    42.9300 ca         1 I4L      -0.377500
     33 C13        -11.7780   -61.7150    43.1830 c          1 I4L       0.604300
     34 C12        -13.0790   -60.9500    43.1470 ca         1 I4L      -0.107600
     35 C11        -14.3050   -61.6430    43.2790 ca         1 I4L      -0.072000
     36 C10        -15.5260   -60.9510    43.2480 ca         1 I4L      -0.102000
     37 C9         -15.5370   -59.5590    43.0860 ca         1 I4L      -0.111000
     38 C8         -14.3280   -58.8590    42.9540 ca         1 I4L      -0.064000
     39 C7         -13.0900   -59.5430    42.9830 ca         1 I4L      -0.117600
     40 H1         -10.1670   -57.1720    42.5940 ho         1 I4L       0.510000
     41 H2          -9.2720   -62.7200    43.1860 ha         1 I4L       0.145000
     42 H           -6.1200   -59.5180    42.9250 ho         1 I4L       0.517000
     43 H13         -8.2080   -62.0180    40.5920 h1         1 I4L       0.079200
     44 H14         -7.4880   -63.6280    40.6830 h1         1 I4L       0.079200
     45 H11         -7.0150   -61.4400    38.6040 h1         1 I4L       0.053950
     46 H12         -7.7490   -63.0330    38.3940 h1         1 I4L       0.053950
     47 H16         -6.0540   -63.1260    35.1480 hc         1 I4L       0.042200
     48 H15         -7.3130   -63.2200    36.3960 hc         1 I4L       0.042200
     49 H21         -4.8610   -66.2470    35.9860 ho         1 I4L       0.470000
     50 H19         -7.3030   -64.9110    33.9410 hc         1 I4L       0.008200
     51 H18         -8.4980   -65.0500    35.3210 hc         1 I4L       0.008200
     52 H10         -3.6660   -63.3690    39.3280 h1         1 I4L       0.053950
     53 H9          -4.1710   -61.6750    39.3050 h1         1 I4L       0.053950
     54 H8          -5.0480   -63.8670    41.2470 h1         1 I4L       0.079200
     55 H7          -4.0930   -62.4220    41.5950 h1         1 I4L       0.079200
     56 H6         -14.3170   -62.7240    43.4060 ha         1 I4L       0.135000
     57 H5         -16.4620   -61.4950    43.3500 ha         1 I4L       0.108000
     58 H4         -16.4830   -59.0220    43.0620 ha         1 I4L       0.109000
     59 H3         -14.3590   -57.7780    42.8290 ha         1 I4L       0.134000
@<TRIPOS>BOND
     1     1     2 ar  
     2     1    12 1   
     3     1    32 ar  
     4     2     3 1   
     5     2     8 ar  
     6     3    40 1   
     7     4     6 ar  
     8     4    32 ar  
     9     4    41 1   
    10     5    33 2   
    11     6     8 ar  
    12     6    33 1   
    13     7     9 2   
    14     8     9 1   
    15     9    39 1   
    16    10    29 1   
    17    11    29 1   
    18    12    42 1   
    19    13    14 2   
    20    14    15 2   
    21    14    16 1   
    22    14    32 1   
    23    16    17 1   
    24    16    31 1   
    25    17    18 1   
    26    17    43 1   
    27    17    44 1   
    28    18    19 1   
    29    18    45 1   
    30    18    46 1   
    31    19    20 1   
    32    19    30 1   
    33    20    21 2   
    34    20    22 1   
    35    22    23 1   
    36    22    47 1   
    37    22    48 1   
    38    23    24 1   
    39    23    25 1   
    40    23    29 1   
    41    24    49 1   
    42    25    26 1   
    43    25    50 1   
    44    25    51 1   
    45    26    27 1   
    46    26    28 1   
    47    30    31 1   
    48    30    52 1   
    49    30    53 1   
    50    31    54 1   
    51    31    55 1   
    52    33    34 1   
    53    34    35 ar  
    54    34    39 ar  
    55    35    36 ar  
    56    35    56 1   
    57    36    37 ar  
    58    36    57 1   
    59    37    38 ar  
    60    37    58 1   
    61    38    39 ar  
    62    38    59 1   
@<TRIPOS>SUBSTRUCTURE
     1 I4L         1 TEMP              0 ****  ****    0 ROOT
