@<TRIPOS>MOLECULE
I4M
   51    54     1     0     0
SMALL
abcg2


@<TRIPOS>ATOM
      1 C10         75.6150    31.3080     2.0180 ca         1 I4M      -0.211000
      2 C13         73.3140    35.5870     2.6170 ca         1 I4M      -0.224000
      3 C15         73.5640    37.7910     7.2720 c3         1 I4M       0.161600
      4 C17         73.9120    32.8920     3.6700 c3         1 I4M       0.083600
      5 C20         74.9020    32.8510     4.8350 c3         1 I4M      -0.093400
      6 C21         75.1140    34.1620     5.5890 c3         1 I4M      -0.115400
      7 C22         73.0280    36.8500     2.0970 ca         1 I4M       0.147100
      8 C24         74.7210    35.1290     0.7400 ca         1 I4M       0.086000
      9 C26         74.1650    34.7080     1.9520 ca         1 I4M       0.013000
     10 C08         76.4320    30.5650     1.1760 ca         1 I4M       0.339900
     11 C09         76.6200    32.2690    -0.2960 ca         1 I4M       0.335900
     12 C11         73.5850    37.2440     0.8900 ca         1 I4M      -0.148000
     13 C12         74.4290    36.3720     0.2210 ca         1 I4M      -0.068000
     14 C14         73.0040    37.8650     4.9810 c3         1 I4M       0.116600
     15 C16         71.8370    37.5680     4.0510 c3         1 I4M       0.159600
     16 C18         74.6640    36.7400     7.2980 c3         1 I4M       0.145800
     17 C19         73.9010    34.5640     6.4470 c3         1 I4M       0.177800
     18 C23         75.8210    33.0870     0.4720 ca         1 I4M       0.068000
     19 C25         75.2820    32.6190     1.6780 ca         1 I4M       0.007000
     20 N04         76.9340    31.0180     0.0400 nb         1 I4M      -0.659000
     21 N05         74.4720    33.4340     2.4400 na         1 I4M      -0.096000
     22 N06         74.1670    35.4070     7.5980 n3         1 I4M      -0.738600
     23 O01         72.5730    37.5910     6.2870 os         1 I4M      -0.449000
     24 O02         72.2010    37.7390     2.6940 os         1 I4M      -0.342100
     25 O03         75.5830    34.3440     0.0220 os         1 I4M      -0.305000
     26 H1          75.2600    30.8450     2.9260 ha         1 I4M       0.124000
     27 H2          72.8690    35.2900     3.5520 ha         1 I4M       0.126000
     28 H3          74.0230    38.7830     7.1600 h1         1 I4M       0.050700
     29 H4          73.0430    37.7760     8.2320 h1         1 I4M       0.050700
     30 H5          73.0150    33.4470     3.9370 h1         1 I4M       0.055200
     31 H6          73.5510    31.8840     3.4560 h1         1 I4M       0.055200
     32 H7          74.5470    32.0950     5.5420 hc         1 I4M       0.050700
     33 H8          75.8640    32.4860     4.4710 hc         1 I4M       0.050700
     34 H9          75.9830    34.0270     6.2380 hc         1 I4M       0.047200
     35 H10         75.3800    34.9630     4.8930 hc         1 I4M       0.047200
     36 H11         74.9120    35.3350     9.5470 h1         1 I4M       0.028700
     37 H12         74.4280    33.7820     8.8780 h1         1 I4M       0.028700
     38 H13         75.9600    34.5140     8.3900 h1         1 I4M       0.028700
     39 H14         76.6840    29.5480     1.4530 h4         1 I4M       0.020100
     40 H15         77.0240    32.6530    -1.2280 h4         1 I4M       0.034100
     41 H16         73.3700    38.2220     0.4800 ha         1 I4M       0.136000
     42 H17         74.8780    36.6640    -0.7200 ha         1 I4M       0.135000
     43 H18         73.8710    37.2520     4.7020 h1         1 I4M       0.033700
     44 H19         73.3080    38.9160     4.8730 h1         1 I4M       0.033700
     45 H20         71.0250    38.2740     4.2260 h1         1 I4M       0.065700
     46 H21         71.4380    36.5660     4.2430 h1         1 I4M       0.065700
     47 H22         75.2570    36.7690     6.3740 h1         1 I4M       0.036700
     48 H23         75.3550    37.0510     8.0850 h1         1 I4M       0.036700
     49 H24         73.1460    35.0520     5.8270 h1         1 I4M       0.050200
     50 H25         73.4250    33.6510     6.8220 h1         1 I4M       0.050200
     51 C07         74.9120    34.7310     8.6380 c3         1 I4M       0.166100
@<TRIPOS>BOND
     1     1    10 ar  
     2     1    19 ar  
     3     1    26 1   
     4     2     7 ar  
     5     2     9 ar  
     6     2    27 1   
     7     3    16 1   
     8     3    23 1   
     9     3    28 1   
    10     3    29 1   
    11     4     5 1   
    12     4    21 1   
    13     4    30 1   
    14     4    31 1   
    15     5     6 1   
    16     5    32 1   
    17     5    33 1   
    18     6    17 1   
    19     6    34 1   
    20     6    35 1   
    21     7    12 ar  
    22     7    24 1   
    23     8     9 ar  
    24     8    13 ar  
    25     8    25 1   
    26     9    21 1   
    27    10    20 ar  
    28    10    39 1   
    29    11    18 ar  
    30    11    20 ar  
    31    11    40 1   
    32    12    13 ar  
    33    12    41 1   
    34    13    42 1   
    35    14    15 1   
    36    14    23 1   
    37    14    43 1   
    38    14    44 1   
    39    15    24 1   
    40    15    45 1   
    41    15    46 1   
    42    16    22 1   
    43    16    47 1   
    44    16    48 1   
    45    17    22 1   
    46    17    49 1   
    47    17    50 1   
    48    18    19 ar  
    49    18    25 1   
    50    19    21 1   
    51    22    51 1   
    52    36    51 1   
    53    37    51 1   
    54    38    51 1   
@<TRIPOS>SUBSTRUCTURE
     1 I4M         1 TEMP              0 ****  ****    0 ROOT
