@<TRIPOS>MOLECULE
I4M
   51    54     1     0     0
SMALL
No Charge or Current Charge


@<TRIPOS>ATOM
      1 C10         75.7030    31.2510     2.0040 ca         1 I4M      -0.211000
      2 C13         73.4480    35.6620     2.5760 ca         1 I4M      -0.224000
      3 C15         73.3450    37.7890     7.4610 c3         1 I4M       0.161600
      4 C17         73.9000    32.9070     3.6350 c3         1 I4M       0.083600
      5 C20         74.8890    32.9230     4.8310 c3         1 I4M      -0.093400
      6 C21         75.0160    34.2600     5.6030 c3         1 I4M      -0.115400
      7 C22         73.1730    36.9340     2.0250 ca         1 I4M       0.147100
      8 C24         74.6840    35.0700     0.5710 ca         1 I4M       0.086000
      9 C26         74.2060    34.7020     1.8550 ca         1 I4M       0.013000
     10 C08         76.5070    30.4540     1.1710 ca         1 I4M       0.339900
     11 C09         76.5640    32.0900    -0.4590 ca         1 I4M       0.335900
     12 C11         73.6570    37.2630     0.7530 ca         1 I4M      -0.148000
     13 C12         74.4150    36.3350     0.0280 ca         1 I4M      -0.068000
     14 C14         73.0180    37.8780     5.0390 c3         1 I4M       0.116600
     15 C16         71.8830    37.7100     4.0040 c3         1 I4M       0.159600
     16 C18         74.5350    36.7840     7.5180 c3         1 I4M       0.145800
     17 C19         73.8250    34.5560     6.5600 c3         1 I4M       0.177800
     18 C23         75.7610    32.9560     0.3120 ca         1 I4M       0.068000
     19 C25         75.3050    32.5450     1.5820 ca         1 I4M       0.007000
     20 N04         76.9370    30.8550    -0.0450 nb         1 I4M      -0.659000
     21 N05         74.4940    33.4080     2.3600 na         1 I4M      -0.096000
     22 N06         74.1640    35.3590     7.7700 n3         1 I4M      -0.738600
     23 O01         72.4750    37.5510     6.3310 os         1 I4M      -0.449000
     24 O02         72.4150    37.8880     2.6750 os         1 I4M      -0.342100
     25 O03         75.4290    34.1950    -0.1780 os         1 I4M      -0.305000
     26 H1          75.4130    30.8370     2.9630 ha         1 I4M       0.124000
     27 H2          73.0730    35.4280     3.5620 ha         1 I4M       0.126000
     28 H3          73.7440    38.8120     7.4260 h1         1 I4M       0.050700
     29 H4          72.7740    37.6970     8.3940 h1         1 I4M       0.050700
     30 H5          72.9770    33.4340     3.8910 h1         1 I4M       0.055200
     31 H6          73.5810    31.8710     3.4660 h1         1 I4M       0.055200
     32 H7          74.5900    32.1400     5.5380 hc         1 I4M       0.050700
     33 H8          75.8850    32.6340     4.4750 hc         1 I4M       0.050700
     34 H9          75.9450    34.2020     6.1810 hc         1 I4M       0.047200
     35 H10         75.1520    35.0920     4.9030 hc         1 I4M       0.047200
     36 H11         75.0870    35.1890     9.6840 h1         1 I4M       0.028700
     37 H12         74.7400    33.6370     8.8970 h1         1 I4M       0.028700
     38 H13         76.1030    34.6390     8.3380 h1         1 I4M       0.028700
     39 H14         76.8170    29.4600     1.4890 h4         1 I4M       0.020100
     40 H15         76.9210    32.3980    -1.4410 h4         1 I4M       0.034100
     41 H16         73.4430    38.2400     0.3290 ha         1 I4M       0.136000
     42 H17         74.7920    36.5910    -0.9590 ha         1 I4M       0.135000
     43 H18         73.8590    37.2190     4.7900 h1         1 I4M       0.033700
     44 H19         73.3740    38.9170     5.0160 h1         1 I4M       0.033700
     45 H20         71.1220    38.4750     4.2040 h1         1 I4M       0.065700
     46 H21         71.3990    36.7310     4.1130 h1         1 I4M       0.065700
     47 H22         75.1430    36.8740     6.6080 h1         1 I4M       0.036700
     48 H23         75.1770    37.1350     8.3370 h1         1 I4M       0.036700
     49 H24         73.0240    35.0400     5.9860 h1         1 I4M       0.050200
     50 H25         73.4130    33.5950     6.8960 h1         1 I4M       0.050200
     51 C07         75.0740    34.6680     8.7180 c3         1 I4M       0.166100
@<TRIPOS>BOND
     1     1    10 ar  
     2     1    19 ar  
     3     1    26 1   
     4     2     7 ar  
     5     2     9 ar  
     6     2    27 1   
     7     3    16 1   
     8     3    23 1   
     9     3    28 1   
    10     3    29 1   
    11     4     5 1   
    12     4    21 1   
    13     4    30 1   
    14     4    31 1   
    15     5     6 1   
    16     5    32 1   
    17     5    33 1   
    18     6    17 1   
    19     6    34 1   
    20     6    35 1   
    21     7    12 ar  
    22     7    24 1   
    23     8     9 ar  
    24     8    13 ar  
    25     8    25 1   
    26     9    21 1   
    27    10    20 ar  
    28    10    39 1   
    29    11    18 ar  
    30    11    20 ar  
    31    11    40 1   
    32    12    13 ar  
    33    12    41 1   
    34    13    42 1   
    35    14    15 1   
    36    14    23 1   
    37    14    43 1   
    38    14    44 1   
    39    15    24 1   
    40    15    45 1   
    41    15    46 1   
    42    16    22 1   
    43    16    47 1   
    44    16    48 1   
    45    17    22 1   
    46    17    49 1   
    47    17    50 1   
    48    18    19 ar  
    49    18    25 1   
    50    19    21 1   
    51    22    51 1   
    52    36    51 1   
    53    37    51 1   
    54    38    51 1   
@<TRIPOS>SUBSTRUCTURE
     1 I4M         1 TEMP              0 ****  ****    0 ROOT
