@<TRIPOS>MOLECULE
I4S
   16    16     1     0     0
SMALL
abcg2


@<TRIPOS>ATOM
      1 C01        -11.7600   -28.2730     7.0350 c3         1 I4S      -0.116400
      2 C02        -13.1020   -27.6720     6.8130 cc         1 I4S       0.278300
      3 C05        -15.5300   -26.6430     6.4260 cc         1 I4S       0.662200
      4 C07        -14.3130   -28.4670     7.1060 c          1 I4S       0.588200
      5 C09        -16.8200   -25.9340     6.1920 c3         1 I4S      -0.146400
      6 N03        -13.1800   -26.4690     6.3670 nd         1 I4S      -0.391400
      7 N04        -14.4010   -25.9670     6.1810 na         1 I4S      -0.574500
      8 N06        -15.5190   -27.8610     6.8770 nd         1 I4S      -0.711100
      9 O08        -14.2290   -29.6040     7.5410 o          1 I4S      -0.520100
     10 H1         -10.9730   -27.5720     6.7650 hc         1 I4S       0.062033
     11 H2         -11.6310   -28.5530     8.0820 hc         1 I4S       0.062033
     12 H3         -11.6410   -29.1830     6.4460 hc         1 I4S       0.062033
     13 H4         -17.5400   -26.6190     5.7510 hc         1 I4S       0.070367
     14 H5         -17.2220   -25.5900     7.1460 hc         1 I4S       0.070367
     15 H6         -16.7100   -25.0700     5.5400 hc         1 I4S       0.070367
     16 H7         -14.4200   -25.0230     5.8230 hn         1 I4S       0.536000
@<TRIPOS>BOND
     1     1     2 1   
     2     1    10 1   
     3     1    11 1   
     4     1    12 1   
     5     2     4 1   
     6     2     6 2   
     7     3     5 1   
     8     3     7 1   
     9     3     8 2   
    10     4     8 1   
    11     4     9 2   
    12     5    13 1   
    13     5    14 1   
    14     5    15 1   
    15     6     7 1   
    16     7    16 1   
@<TRIPOS>SUBSTRUCTURE
     1 I4S         1 TEMP              0 ****  ****    0 ROOT
