@<TRIPOS>MOLECULE
I4S
   16    16     1     0     0
SMALL
No Charge or Current Charge


@<TRIPOS>ATOM
      1 C01        -11.7100   -28.3210     7.0700 c3         1 I4S      -0.116400
      2 C02        -13.0330   -27.6370     6.8230 cc         1 I4S       0.278300
      3 C05        -15.5900   -26.6030     6.4200 cc         1 I4S       0.662200
      4 C07        -14.2540   -28.4910     6.9810 c          1 I4S       0.588200
      5 C09        -16.9060   -25.9350     6.1780 c3         1 I4S      -0.146400
      6 N03        -13.0600   -26.3430     6.4840 nd         1 I4S      -0.391400
      7 N04        -14.3810   -25.9080     6.3020 na         1 I4S      -0.574500
      8 N06        -15.4910   -27.8740     6.7560 nd         1 I4S      -0.711100
      9 O08        -14.2460   -29.6770     7.2900 o          1 I4S      -0.520100
     10 H1         -10.8700   -27.6300     6.9330 hc         1 I4S       0.062033
     11 H2         -11.6590   -28.7120     8.0920 hc         1 I4S       0.062033
     12 H3         -11.5700   -29.1590     6.3760 hc         1 I4S       0.062033
     13 H4         -17.7350   -26.6380     6.3170 hc         1 I4S       0.070367
     14 H5         -17.0490   -25.1010     6.8730 hc         1 I4S       0.070367
     15 H6         -16.9590   -25.5480     5.1540 hc         1 I4S       0.070367
     16 H7         -14.4780   -24.9240     6.0410 hn         1 I4S       0.536000
@<TRIPOS>BOND
     1     1     2 1   
     2     1    10 1   
     3     1    11 1   
     4     1    12 1   
     5     2     4 1   
     6     2     6 2   
     7     3     5 1   
     8     3     7 1   
     9     3     8 2   
    10     4     8 1   
    11     4     9 2   
    12     5    13 1   
    13     5    14 1   
    14     5    15 1   
    15     6     7 1   
    16     7    16 1   
@<TRIPOS>SUBSTRUCTURE
     1 I4S         1 TEMP              0 ****  ****    0 ROOT
