@<TRIPOS>MOLECULE
I4X
   26    28     1     0     0
SMALL
No Charge or Current Charge


@<TRIPOS>ATOM
      1 C4          11.8850    15.4520     9.3820 ca         1 I4X      -0.067300
      2 C5          12.1800    15.7990    10.7240 ca         1 I4X      -0.088000
      3 C6          13.5140    15.8780    11.1730 ca         1 I4X      -0.093000
      4 C11         16.5540    15.2210    11.6120 cc         1 I4X       0.398400
      5 C7          14.5410    15.6070    10.2590 ca         1 I4X      -0.006200
      6 C8          14.2670    15.2660     8.9400 ca         1 I4X      -0.168000
      7 C9          12.9440    15.1810     8.4830 ca         1 I4X      -0.057000
      8 C10         16.6490    15.2760     9.4300 cc         1 I4X       0.437800
      9 N1          17.7540    14.6750     9.8320 nd         1 I4X      -0.320000
     10 N2          17.7280    14.7150    11.2230 nd         1 I4X      -0.348000
     11 C3          10.0560    13.9360     8.4790 c3         1 I4X      -0.086100
     12 N3          15.8950    15.6440    10.4890 na         1 I4X      -0.259800
     13 C1          10.1290    16.4020     7.8100 c3         1 I4X      -0.086100
     14 C2          10.4290    15.3690     8.9180 c3         1 I4X      -0.019400
     15 S1          15.7360    14.9200     7.9560 ss         1 I4X       0.027700
     16 H1          11.3740    16.0090    11.4240 ha         1 I4X       0.122000
     17 H2          13.7360    16.1510    12.2020 ha         1 I4X       0.129000
     18 H3          16.1590    15.2950    12.6180 h5         1 I4X       0.071100
     19 H4          12.7420    14.9060     7.4500 ha         1 I4X       0.131000
     20 H5          10.2560    13.2230     9.2880 hc         1 I4X       0.038200
     21 H6           8.9900    13.8740     8.2280 hc         1 I4X       0.038200
     22 H7          10.6320    13.6270     7.5990 hc         1 I4X       0.038200
     23 H8          10.3810    17.4140     8.1500 hc         1 I4X       0.038200
     24 H9          10.7070    16.1910     6.9020 hc         1 I4X       0.038200
     25 H10          9.0640    16.3880     7.5470 hc         1 I4X       0.038200
     26 H11          9.7740    15.6180     9.7630 hc         1 I4X       0.052700
@<TRIPOS>BOND
     1     1     2 ar  
     2     1     7 ar  
     3     1    14 1   
     4     2     3 ar  
     5     2    16 1   
     6     3     5 ar  
     7     3    17 1   
     8     4    10 2   
     9     4    12 1   
    10     4    18 1   
    11     5     6 ar  
    12     5    12 1   
    13     6     7 ar  
    14     6    15 1   
    15     7    19 1   
    16     8     9 2   
    17     8    12 1   
    18     8    15 1   
    19     9    10 1   
    20    11    14 1   
    21    11    20 1   
    22    11    21 1   
    23    11    22 1   
    24    13    14 1   
    25    13    23 1   
    26    13    24 1   
    27    13    25 1   
    28    14    26 1   
@<TRIPOS>SUBSTRUCTURE
     1 I4X         1 TEMP              0 ****  ****    0 ROOT
