@<TRIPOS>MOLECULE
I4X
   26    28     1     0     0
SMALL
abcg2


@<TRIPOS>ATOM
      1 C4          11.8470    15.3940     9.3910 ca         1 I4X      -0.067300
      2 C5          12.1410    15.6570    10.7300 ca         1 I4X      -0.088000
      3 C6          13.4400    15.6430    11.2180 ca         1 I4X      -0.093000
      4 C11         16.7180    15.4290    11.5850 cc         1 I4X       0.398400
      5 C7          14.4600    15.3610    10.3300 ca         1 I4X      -0.006200
      6 C8          14.1880    15.0970     8.9860 ca         1 I4X      -0.168000
      7 C9          12.8900    15.1090     8.5110 ca         1 I4X      -0.057000
      8 C10         16.5900    14.9940     9.4870 cc         1 I4X       0.437800
      9 N1          17.8500    14.9500     9.7970 nd         1 I4X      -0.320000
     10 N2          17.9210    15.2270    11.1300 nd         1 I4X      -0.348000
     11 C3           9.9790    14.0300     8.4190 c3         1 I4X      -0.086100
     12 N3          15.8270    15.2910    10.5700 na         1 I4X      -0.259800
     13 C1          10.2120    16.4640     7.8120 c3         1 I4X      -0.086100
     14 C2          10.4180    15.4120     8.9010 c3         1 I4X      -0.019400
     15 S1          15.6460    14.7710     8.0500 ss         1 I4X       0.027700
     16 H1          11.3310    15.8790    11.4140 ha         1 I4X       0.122000
     17 H2          13.6450    15.8470    12.2600 ha         1 I4X       0.129000
     18 H3          16.4480    15.6680    12.6010 h5         1 I4X       0.071100
     19 H4          12.6930    14.9000     7.4670 ha         1 I4X       0.131000
     20 H5          10.0950    13.2790     9.2010 hc         1 I4X       0.038200
     21 H6           8.9290    14.0460     8.1220 hc         1 I4X       0.038200
     22 H7          10.5610    13.7070     7.5530 hc         1 I4X       0.038200
     23 H8          10.5060    17.4570     8.1550 hc         1 I4X       0.038200
     24 H9          10.7920    16.2300     6.9180 hc         1 I4X       0.038200
     25 H10          9.1610    16.5070     7.5200 hc         1 I4X       0.038200
     26 H11          9.7890    15.6860     9.7530 hc         1 I4X       0.052700
@<TRIPOS>BOND
     1     1     2 ar  
     2     1     7 ar  
     3     1    14 1   
     4     2     3 ar  
     5     2    16 1   
     6     3     5 ar  
     7     3    17 1   
     8     4    10 2   
     9     4    12 1   
    10     4    18 1   
    11     5     6 ar  
    12     5    12 1   
    13     6     7 ar  
    14     6    15 1   
    15     7    19 1   
    16     8     9 2   
    17     8    12 1   
    18     8    15 1   
    19     9    10 1   
    20    11    14 1   
    21    11    20 1   
    22    11    21 1   
    23    11    22 1   
    24    13    14 1   
    25    13    23 1   
    26    13    24 1   
    27    13    25 1   
    28    14    26 1   
@<TRIPOS>SUBSTRUCTURE
     1 I4X         1 TEMP              0 ****  ****    0 ROOT
