@<TRIPOS>MOLECULE
I4Y
   32    33     1     0     0
SMALL
No Charge or Current Charge


@<TRIPOS>ATOM
      1 C10        -20.1460   -16.0530     9.5700 ca         1 I4Y       0.078000
      2 C13        -18.3360   -17.0110    11.4760 ca         1 I4Y      -0.350000
      3 C15        -18.2010   -12.9090     9.5550 ca         1 I4Y      -0.138600
      4 C17        -17.0470   -13.5670     9.0690 ca         1 I4Y      -0.061000
      5 C20        -15.9290   -11.4270     8.7520 ca         1 I4Y      -0.104000
      6 C21        -18.1650   -19.8520    11.9660 c3         1 I4Y       0.154900
      7 C08        -20.0640   -17.4390     9.8140 ca         1 I4Y      -0.286500
      8 C09        -19.3150   -15.1540    10.2600 ca         1 I4Y      -0.281600
      9 C11        -19.1510   -17.9230    10.7700 ca         1 I4Y       0.281100
     10 C12        -18.4240   -15.6410    11.2240 ca         1 I4Y       0.215100
     11 C14        -19.4320   -13.6870     9.9710 c          1 I4Y       0.616300
     12 C16        -18.2020   -11.4970     9.6200 ca         1 I4Y      -0.061000
     13 C18        -17.0710   -10.7620     9.2240 ca         1 I4Y      -0.133500
     14 C19        -15.9190   -12.8280     8.6730 ca         1 I4Y      -0.133500
     15 O02        -19.0720   -19.2820    11.0090 os         1 I4Y      -0.294100
     16 O03        -17.6560   -14.7920    11.9530 oh         1 I4Y      -0.540100
     17 O04        -21.9040   -19.2420     9.9770 o          1 I4Y      -0.690200
     18 O05        -20.5290   -13.1440    10.0430 o          1 I4Y      -0.532100
     19 O06        -20.1630   -19.4580     8.2090 o          1 I4Y      -0.690200
     20 O07        -21.9200   -17.7040     8.0190 o          1 I4Y      -0.690200
     21 S01        -21.1480   -18.6040     8.8890 s6         1 I4Y       1.268100
     22 H1         -20.8480   -15.6600     8.8350 ha         1 I4Y       0.157000
     23 H2         -17.6360   -17.3580    12.2290 ha         1 I4Y       0.099000
     24 H3         -17.0210   -14.6510     8.9880 ha         1 I4Y       0.126500
     25 H4         -15.0540   -10.8570     8.4440 ha         1 I4Y       0.100000
     26 H5         -18.2720   -20.9440    11.9850 h1         1 I4Y       0.032367
     27 H6         -17.1260   -19.6170    11.7060 h1         1 I4Y       0.032367
     28 H7         -18.3740   -19.4720    12.9750 h1         1 I4Y       0.032367
     29 H8         -19.0800   -10.9650     9.9830 ha         1 I4Y       0.126500
     30 H9         -17.0820    -9.6760     9.2820 ha         1 I4Y       0.104500
     31 H10        -15.0360   -13.3450     8.3020 ha         1 I4Y       0.104500
     32 H11        -17.1250   -15.3320    12.5740 ho         1 I4Y       0.456000
@<TRIPOS>BOND
     1     1     7 ar  
     2     1     8 ar  
     3     1    22 1   
     4     2     9 ar  
     5     2    10 ar  
     6     2    23 1   
     7     3     4 ar  
     8     3    11 1   
     9     3    12 ar  
    10     4    14 ar  
    11     4    24 1   
    12     5    13 ar  
    13     5    14 ar  
    14     5    25 1   
    15     6    15 1   
    16     6    26 1   
    17     6    27 1   
    18     6    28 1   
    19     7     9 ar  
    20     7    21 1   
    21     8    10 ar  
    22     8    11 1   
    23     9    15 1   
    24    10    16 1   
    25    11    18 2   
    26    12    13 ar  
    27    12    29 1   
    28    13    30 1   
    29    14    31 1   
    30    16    32 1   
    31    17    21 1   
    32    19    21 1   
    33    20    21 1   
@<TRIPOS>SUBSTRUCTURE
     1 I4Y         1 TEMP              0 ****  ****    0 ROOT
