@<TRIPOS>MOLECULE
I4Y
   32    33     1     0     0
SMALL
abcg2


@<TRIPOS>ATOM
      1 C10        -20.1220   -16.0980     9.5900 ca         1 I4Y       0.078000
      2 C13        -18.3130   -17.0140    11.4580 ca         1 I4Y      -0.350000
      3 C15        -18.1740   -12.9590     9.5430 ca         1 I4Y      -0.138600
      4 C17        -17.0280   -13.5760     9.0470 ca         1 I4Y      -0.061000
      5 C20        -15.9490   -11.4380     8.8420 ca         1 I4Y      -0.104000
      6 C21        -18.1880   -19.7480    11.9700 c3         1 I4Y       0.154900
      7 C08        -20.0660   -17.4510     9.8470 ca         1 I4Y      -0.286500
      8 C09        -19.2690   -15.1800    10.2040 ca         1 I4Y      -0.281600
      9 C11        -19.1380   -17.9170    10.7970 ca         1 I4Y       0.281100
     10 C12        -18.3740   -15.6530    11.1670 ca         1 I4Y       0.215100
     11 C14        -19.3990   -13.7450     9.8520 c          1 I4Y       0.616300
     12 C16        -18.2000   -11.5710     9.6760 ca         1 I4Y      -0.061000
     13 C18        -17.0880   -10.8160     9.3400 ca         1 I4Y      -0.133500
     14 C19        -15.9240   -12.8180     8.6890 ca         1 I4Y      -0.133500
     15 O02        -19.1060   -19.2310    11.0250 os         1 I4Y      -0.294100
     16 O03        -17.6170   -14.7620    11.8200 oh         1 I4Y      -0.540100
     17 O04        -21.9150   -19.2910     9.9990 o          1 I4Y      -0.690200
     18 O05        -20.4970   -13.2330     9.7530 o          1 I4Y      -0.532100
     19 O06        -20.2670   -19.4470     8.1740 o          1 I4Y      -0.690200
     20 O07        -21.9960   -17.7020     8.1260 o          1 I4Y      -0.690200
     21 S01        -21.1530   -18.5760     8.9630 s6         1 I4Y       1.268100
     22 H1         -20.8340   -15.7340     8.8610 ha         1 I4Y       0.157000
     23 H2         -17.6160   -17.3500    12.2160 ha         1 I4Y       0.099000
     24 H3         -17.0010   -14.6510     8.9140 ha         1 I4Y       0.126500
     25 H4         -15.0840   -10.8470     8.5710 ha         1 I4Y       0.100000
     26 H5         -18.3310   -20.8260    11.9760 h1         1 I4Y       0.032367
     27 H6         -17.1530   -19.5300    11.6950 h1         1 I4Y       0.032367
     28 H7         -18.3780   -19.3620    12.9750 h1         1 I4Y       0.032367
     29 H8         -19.0870   -11.0820    10.0570 ha         1 I4Y       0.126500
     30 H9         -17.1090    -9.7410     9.4610 ha         1 I4Y       0.104500
     31 H10        -15.0430   -13.3040     8.2910 ha         1 I4Y       0.104500
     32 H11        -17.0280   -15.1980    12.4470 ho         1 I4Y       0.456000
@<TRIPOS>BOND
     1     1     7 ar  
     2     1     8 ar  
     3     1    22 1   
     4     2     9 ar  
     5     2    10 ar  
     6     2    23 1   
     7     3     4 ar  
     8     3    11 1   
     9     3    12 ar  
    10     4    14 ar  
    11     4    24 1   
    12     5    13 ar  
    13     5    14 ar  
    14     5    25 1   
    15     6    15 1   
    16     6    26 1   
    17     6    27 1   
    18     6    28 1   
    19     7     9 ar  
    20     7    21 1   
    21     8    10 ar  
    22     8    11 1   
    23     9    15 1   
    24    10    16 1   
    25    11    18 2   
    26    12    13 ar  
    27    12    29 1   
    28    13    30 1   
    29    14    31 1   
    30    16    32 1   
    31    17    21 1   
    32    19    21 1   
    33    20    21 1   
@<TRIPOS>SUBSTRUCTURE
     1 I4Y         1 TEMP              0 ****  ****    0 ROOT
