@<TRIPOS>MOLECULE
I50
   51    52     1     0     0
SMALL
abcg2


@<TRIPOS>ATOM
      1 C1          -5.9630     2.5130     0.2080 c2         1 I50       0.746100
      2 O5          -5.6550     0.7790    -1.3090 os         1 I50      -0.225300
      3 C7          -5.5950    -1.5870    -1.3530 c3         1 I50       0.097000
      4 C9          -3.3210    -1.2890    -0.4650 c          1 I50       0.612100
      5 C11         -2.4940    -1.3340     0.8120 c3         1 I50      -0.117100
      6 C12         -1.0490    -1.5830     0.5190 ca         1 I50      -0.053300
      7 C13         -0.1110    -0.5770     0.6010 ca         1 I50       0.131000
      8 C14          1.2550    -0.7400     0.3400 ca         1 I50       0.281000
      9 C15          1.6630    -2.0170    -0.0420 ca         1 I50      -0.157000
     10 C16          0.7520    -3.0600    -0.1390 ca         1 I50      -0.075000
     11 C21          3.4760     0.2520     0.0850 c3         1 I50       0.156800
     12 C24          4.2980     1.3790     0.6840 c3         1 I50       0.234300
     13 C27          7.9960     0.5890     0.5240 ca         1 I50      -0.114500
     14 C30          6.0990     1.9700    -0.9580 ca         1 I50      -0.074500
     15 N2          -5.2630     1.9730     1.1250 n2         1 I50      -0.861100
     16 N3          -6.4370     3.7940     0.3200 nv         1 I50      -1.021200
     17 N4          -6.3630     1.9200    -0.9930 nu         1 I50      -0.686900
     18 C6          -6.4850    -0.3690    -1.2190 c3         1 I50       0.128600
     19 N8          -4.6000    -1.6680    -0.3100 ns         1 I50      -0.510900
     20 O10         -2.8440    -0.9110    -1.5210 o          1 I50      -0.581100
     21 C17         -0.5820    -2.8420     0.1340 ca         1 I50       0.105000
     22 CL18        -1.7120    -4.1490    -0.0270 cl         1 I50      -0.205000
     23 F19         -0.5140     0.6580     0.9590 f          1 I50      -0.175000
     24 N20          2.1030     0.3320     0.5060 nu         1 I50      -0.928200
     25 C25          5.7310     1.3460     0.2300 ca         1 I50      -0.167300
     26 C26          6.6830     0.6520     0.9690 ca         1 I50      -0.074500
     27 C28          8.3640     1.2170    -0.6580 ca         1 I50      -0.089000
     28 C29          7.4130     1.9050    -1.3980 ca         1 I50      -0.114500
     29 F31          3.7300     2.5780     0.3480 f          1 I50      -0.111000
     30 F32          4.2330     1.3160     2.0430 f          1 I50      -0.111000
     31 H71         -6.2270    -2.4750    -1.3120 h1         1 I50       0.068200
     32 H72         -5.0940    -1.5930    -2.3200 h1         1 I50       0.068200
     33 H111        -2.6250    -0.3750     1.3180 hc         1 I50       0.079200
     34 H112        -2.8800    -2.0880     1.5010 hc         1 I50       0.079200
     35 H15          2.6980    -2.2190    -0.2760 ha         1 I50       0.119000
     36 H16          1.0960    -4.0390    -0.4420 ha         1 I50       0.130000
     37 H211         3.5980     0.2710    -1.0060 h1         1 I50       0.061700
     38 H212         3.9190    -0.6820     0.4310 h1         1 I50       0.061700
     39 H30          5.3700     2.5110    -1.5470 ha         1 I50       0.126000
     40 HN2         -4.9250     1.0650     0.8320 hn         1 I50       0.398400
     41 HN31        -6.4080     4.1590     1.2580 hn         1 I50       0.465000
     42 HN32        -7.3070     4.0000    -0.1460 hn         1 I50       0.465000
     43 HN4         -6.3450     2.5480    -1.7890 hn         1 I50       0.468000
     44 H61         -7.0130    -0.3880    -0.2600 h1         1 I50       0.042200
     45 H62         -7.2340    -0.3740    -2.0180 h1         1 I50       0.042200
     46 HN8         -4.9030    -1.9810     0.5980 hn         1 I50       0.312500
     47 HN20         1.6750     1.2310     0.3490 hn         1 I50       0.491000
     48 H26          6.4130     0.1540     1.8910 ha         1 I50       0.126000
     49 H28          9.3890     1.1680    -1.0010 ha         1 I50       0.117000
     50 H29          7.6920     2.3950    -2.3220 ha         1 I50       0.119000
     51 H27          8.7320     0.0480     1.1050 ha         1 I50       0.119000
@<TRIPOS>BOND
     1     1    15 2   
     2     1    16 1   
     3     1    17 1   
     4     2    17 1   
     5     2    18 1   
     6     3    18 1   
     7     3    19 1   
     8     3    31 1   
     9     3    32 1   
    10     4     5 1   
    11     4    19 1   
    12     4    20 2   
    13     5     6 1   
    14     5    33 1   
    15     5    34 1   
    16     6     7 ar  
    17     6    21 ar  
    18     7     8 ar  
    19     7    23 1   
    20     8     9 ar  
    21     8    24 1   
    22     9    10 ar  
    23     9    35 1   
    24    10    21 ar  
    25    10    36 1   
    26    11    12 1   
    27    11    24 1   
    28    11    37 1   
    29    11    38 1   
    30    12    25 1   
    31    12    29 1   
    32    12    30 1   
    33    13    26 ar  
    34    13    27 ar  
    35    13    51 1   
    36    14    25 ar  
    37    14    28 ar  
    38    14    39 1   
    39    15    40 1   
    40    16    41 1   
    41    16    42 1   
    42    17    43 1   
    43    18    44 1   
    44    18    45 1   
    45    19    46 1   
    46    21    22 1   
    47    24    47 1   
    48    25    26 ar  
    49    26    48 1   
    50    27    28 ar  
    51    27    49 1   
    52    28    50 1   
@<TRIPOS>SUBSTRUCTURE
     1 I50         1 TEMP              0 ****  ****    0 ROOT
