@<TRIPOS>MOLECULE
I50
   51    52     1     0     0
SMALL
No Charge or Current Charge


@<TRIPOS>ATOM
      1 C1          -7.5820     2.1400     0.5960 c2         1 I50       0.746100
      2 O5          -6.2580     0.9330    -0.9500 os         1 I50      -0.225300
      3 C7          -4.9770    -0.8930    -1.9160 c3         1 I50       0.097000
      4 C9          -3.1670    -0.1800    -0.3010 c          1 I50       0.612100
      5 C11         -2.4130    -0.5910     0.9680 c3         1 I50      -0.117100
      6 C12         -0.9850    -1.0470     0.6300 ca         1 I50      -0.053300
      7 C13          0.0930    -0.1320     0.6960 ca         1 I50       0.131000
      8 C14          1.4170    -0.5320     0.3820 ca         1 I50       0.281000
      9 C15          1.6540    -1.8630    -0.0030 ca         1 I50      -0.157000
     10 C16          0.5920    -2.7790    -0.0770 ca         1 I50      -0.075000
     11 C21          3.9170     0.1480     0.1640 c3         1 I50       0.156800
     12 C24          4.8220     1.4040     0.3490 c3         1 I50       0.234300
     13 C27          8.4860     0.2720     0.7460 ca         1 I50      -0.114500
     14 C30          6.7830     1.2010    -1.2850 ca         1 I50      -0.074500
     15 N2          -6.7460     1.9880     1.5060 n2         1 I50      -0.861100
     16 N3          -8.7170     2.8000     0.6890 nv         1 I50      -1.021200
     17 N4          -7.5420     1.4640    -0.5690 nu         1 I50      -0.686900
     18 C6          -6.3850    -0.3710    -1.5500 c3         1 I50       0.128600
     19 N8          -4.1040    -1.0860    -0.7460 ns         1 I50      -0.510900
     20 O10         -2.9420     0.8700    -0.8840 o          1 I50      -0.581100
     21 C17         -0.7170    -2.3800     0.2340 ca         1 I50       0.105000
     22 Cl18        -2.0000    -3.5850     0.1100 cl         1 I50      -0.205000
     23 F19         -0.1380     1.1550     1.0640 f          1 I50      -0.175000
     24 N20          2.4780     0.3890     0.4550 nu         1 I50      -0.928200
     25 C25          6.2860     1.0690     0.0310 ca         1 I50      -0.167300
     26 C26          7.1500     0.5930     1.0420 ca         1 I50      -0.074500
     27 C28          8.9730     0.4160    -0.5640 ca         1 I50      -0.089000
     28 C29          8.1200     0.8780    -1.5780 ca         1 I50      -0.114500
     29 F31          4.3630     2.4000    -0.4480 f          1 I50      -0.111000
     30 F32          4.6900     1.8610     1.6190 f          1 I50      -0.111000
     31 H71         -5.0830    -1.8570    -2.4300 h1         1 I50       0.068200
     32 H72         -4.5040    -0.1970    -2.6230 h1         1 I50       0.068200
     33 H111        -2.3870     0.2730     1.6410 hc         1 I50       0.079200
     34 H112        -2.9530    -1.3960     1.4780 hc         1 I50       0.079200
     35 H15          2.6570    -2.1980    -0.2500 ha         1 I50       0.119000
     36 H16          0.7850    -3.8060    -0.3790 ha         1 I50       0.130000
     37 H211         4.0310    -0.2060    -0.8700 h1         1 I50       0.061700
     38 H212         4.2980    -0.6470     0.8210 h1         1 I50       0.061700
     39 H30          6.1360     1.5510    -2.0870 ha         1 I50       0.126000
     40 HN2         -6.0480     1.3580     1.0920 hn         1 I50       0.398400
     41 HN31        -8.8620     3.1220     1.6370 hn         1 I50       0.465000
     42 HN32        -9.4960     2.2690     0.3240 hn         1 I50       0.465000
     43 HN4         -7.8910     2.0460    -1.3280 hn         1 I50       0.468000
     44 H61         -6.8630    -1.0740    -0.8560 h1         1 I50       0.042200
     45 H62         -6.9950    -0.3180    -2.4610 h1         1 I50       0.042200
     46 HN8         -4.1980    -1.9430    -0.2120 hn         1 I50       0.312500
     47 HN20         2.2150     1.3360     0.7420 hn         1 I50       0.491000
     48 H26          6.7910     0.4680     2.0620 ha         1 I50       0.126000
     49 H28         10.0070     0.1660    -0.7920 ha         1 I50       0.117000
     50 H29          8.4930     0.9860    -2.5940 ha         1 I50       0.119000
     51 H27          9.1440    -0.0920     1.5320 ha         1 I50       0.119000
@<TRIPOS>BOND
     1     1    15 2   
     2     1    16 1   
     3     1    17 1   
     4     2    17 1   
     5     2    18 1   
     6     3    18 1   
     7     3    19 1   
     8     3    31 1   
     9     3    32 1   
    10     4     5 1   
    11     4    19 1   
    12     4    20 2   
    13     5     6 1   
    14     5    33 1   
    15     5    34 1   
    16     6     7 ar  
    17     6    21 ar  
    18     7     8 ar  
    19     7    23 1   
    20     8     9 ar  
    21     8    24 1   
    22     9    10 ar  
    23     9    35 1   
    24    10    21 ar  
    25    10    36 1   
    26    11    12 1   
    27    11    24 1   
    28    11    37 1   
    29    11    38 1   
    30    12    25 1   
    31    12    29 1   
    32    12    30 1   
    33    13    26 ar  
    34    13    27 ar  
    35    13    51 1   
    36    14    25 ar  
    37    14    28 ar  
    38    14    39 1   
    39    15    40 1   
    40    16    41 1   
    41    16    42 1   
    42    17    43 1   
    43    18    44 1   
    44    18    45 1   
    45    19    46 1   
    46    21    22 1   
    47    24    47 1   
    48    25    26 ar  
    49    26    48 1   
    50    27    28 ar  
    51    27    49 1   
    52    28    50 1   
@<TRIPOS>SUBSTRUCTURE
     1 I50         1 TEMP              0 ****  ****    0 ROOT
