@<TRIPOS>MOLECULE
I51
   27    27     1     0     0
SMALL
bcc


@<TRIPOS>ATOM
      1 N1          -0.7230     0.9300     0.8260 ns         1 I51      -0.474100
      2 O1          -2.2550     2.5640     1.2070 o          1 I51      -0.634500
      3 O2          -3.5780    -1.1920    -0.9460 o          1 I51      -0.603500
      4 N2          -2.8790     0.6690     0.1150 ns         1 I51      -0.602500
      5 C1          -1.9740     1.4740     0.7510 c          1 I51       0.826500
      6 C2          -2.6600    -0.5960    -0.4090 c          1 I51       0.731700
      7 C3          -1.3070    -1.0960    -0.2680 cc         1 I51      -0.251400
      8 C4          -0.9570    -2.4460    -0.8140 c3         1 I51      -0.026900
      9 C5          -0.3870    -0.3070     0.3380 cd         1 I51       0.128600
     10 C11          1.0040    -0.7340     0.5290 cf         1 I51      -0.145000
     11 C12          2.0840    -0.0680     0.1130 c2         1 I51      -0.084400
     12 C13          3.4690    -0.5790     0.3880 c3         1 I51       0.169600
     13 C14          2.0300     1.2380    -0.6320 c3         1 I51       0.169600
     14 O3           3.4320    -1.6600     1.2800 oh         1 I51      -0.599800
     15 O4           2.9990     1.2170    -1.6540 oh         1 I51      -0.599800
     16 H1          -0.0380     1.4500     1.3560 hn         1 I51       0.345500
     17 H2          -3.8190     1.0360     0.0370 hn         1 I51       0.343500
     18 H3          -1.8440    -2.9570    -1.1800 hc         1 I51       0.050033
     19 H4          -0.2500    -2.3760    -1.6420 hc         1 I51       0.050033
     20 H5          -0.5010    -3.0840    -0.0540 hc         1 I51       0.050033
     21 H6           1.1260    -1.6850     1.0340 ha         1 I51       0.173000
     22 H7           3.9360    -0.8580    -0.5640 h1         1 I51       0.038950
     23 H8           4.0650     0.2560     0.7840 h1         1 I51       0.038950
     24 H9           1.0280     1.4110    -1.0380 h1         1 I51       0.038950
     25 H10          2.2270     2.0490     0.0850 h1         1 I51       0.038950
     26 H11          4.3040    -2.0630     1.2970 ho         1 I51       0.413500
     27 H12          3.0740     2.1070    -2.0110 ho         1 I51       0.413500
@<TRIPOS>BOND
     1     1     5 1   
     2     1     9 1   
     3     1    16 1   
     4     2     5 2   
     5     3     6 2   
     6     4     5 1   
     7     4     6 1   
     8     4    17 1   
     9     6     7 1   
    10     7     8 1   
    11     7     9 2   
    12     8    18 1   
    13     8    19 1   
    14     8    20 1   
    15     9    10 1   
    16    10    11 2   
    17    10    21 1   
    18    11    12 1   
    19    11    13 1   
    20    12    14 1   
    21    12    22 1   
    22    12    23 1   
    23    13    15 1   
    24    13    24 1   
    25    13    25 1   
    26    14    26 1   
    27    15    27 1   
@<TRIPOS>SUBSTRUCTURE
     1 I51         1 TEMP              0 ****  ****    0 ROOT
