@<TRIPOS>MOLECULE
I51
   27    27     1     0     0
SMALL
No Charge or Current Charge


@<TRIPOS>ATOM
      1 N1          -0.7850     0.7990     0.9930 ns         1 I51      -0.520600
      2 O1          -2.3340     2.3710     1.4770 o          1 I51      -0.559000
      3 O2          -3.5390    -1.0570    -1.1740 o          1 I51      -0.528000
      4 N2          -2.8900     0.6360     0.1450 ns         1 I51      -0.468500
      5 C1          -2.0280     1.3410     0.9080 c          1 I51       0.617000
      6 C2          -2.6540    -0.5220    -0.5250 c          1 I51       0.589200
      7 C3          -1.2690    -1.0440    -0.3860 cc         1 I51      -0.251400
      8 C4          -0.9880    -2.3320    -1.1370 c3         1 I51      -0.026900
      9 C5          -0.3490    -0.3560     0.3840 cd         1 I51       0.128600
     10 C11          1.0180    -0.8320     0.5680 cf         1 I51      -0.195000
     11 C12          2.1420    -0.1620     0.1980 c2         1 I51      -0.084400
     12 C13          3.5300    -0.7450     0.4000 c3         1 I51       0.192800
     13 C14          2.1690     1.1990    -0.4840 c3         1 I51       0.192800
     14 O3           3.9470    -0.5510     1.7570 oh         1 I51      -0.662000
     15 O4           2.1350     1.0330    -1.9070 oh         1 I51      -0.662000
     16 H1          -0.1550     1.3210     1.5890 hn         1 I51       0.459000
     17 H2          -3.8210     1.0120     0.0660 hn         1 I51       0.343500
     18 H3          -1.3910    -2.2960    -2.1570 hc         1 I51       0.050033
     19 H4           0.0850    -2.5330    -1.2290 hc         1 I51       0.050033
     20 H5          -1.4450    -3.1880    -0.6260 hc         1 I51       0.050033
     21 H6           1.1100    -1.8310     0.9980 ha         1 I51       0.223000
     22 H7           3.5100    -1.8170     0.1590 h1         1 I51       0.038950
     23 H8           4.2450    -0.2760    -0.2900 h1         1 I51       0.038950
     24 H9           1.3180     1.8090    -0.1550 h1         1 I51       0.038950
     25 H10          3.0760     1.7440    -0.1870 h1         1 I51       0.038950
     26 H11          4.8390    -0.9570     1.8420 ho         1 I51       0.452500
     27 H12          2.1310     1.9340    -2.2990 ho         1 I51       0.452500
@<TRIPOS>BOND
     1     1     5 1   
     2     1     9 1   
     3     1    16 1   
     4     2     5 2   
     5     3     6 2   
     6     4     5 1   
     7     4     6 1   
     8     4    17 1   
     9     6     7 1   
    10     7     8 1   
    11     7     9 2   
    12     8    18 1   
    13     8    19 1   
    14     8    20 1   
    15     9    10 1   
    16    10    11 2   
    17    10    21 1   
    18    11    12 1   
    19    11    13 1   
    20    12    14 1   
    21    12    22 1   
    22    12    23 1   
    23    13    15 1   
    24    13    24 1   
    25    13    25 1   
    26    14    26 1   
    27    15    27 1   
@<TRIPOS>SUBSTRUCTURE
     1 I51         1 TEMP              0 ****  ****    0 ROOT
