@<TRIPOS>MOLECULE
I52
   82    84     1     0     0
SMALL
bcc


@<TRIPOS>ATOM
      1 C38          2.1450    -0.0570    11.6640 c3         1 I52      -0.074400
      2 C39          2.5790     0.4130    13.0450 c3         1 I52      -0.089100
      3 C37          1.4440     1.0340    10.8620 c3         1 I52      -0.076400
      4 C35          0.2800     1.6560     8.6880 c3         1 I52      -0.038100
      5 C36          1.0160     0.5690     9.4760 c3         1 I52      -0.073400
      6 N8           2.2730     0.6950    -5.5640 n3         1 I52      -0.728600
      7 C9           2.6700     0.9430    -6.9370 c6         1 I52       0.131800
      8 C13          3.4280     0.2750    -4.7900 c6         1 I52       0.131800
      9 O11          4.8860     1.5920    -6.2050 os         1 I52      -0.404600
     10 C12          4.5150     1.3290    -4.8700 c6         1 I52       0.129900
     11 C10          3.7700     1.9870    -6.9720 c6         1 I52       0.129900
     12 C31         -1.2890     0.4060     7.1690 ca         1 I52      -0.136000
     13 C23         -2.3760     0.3170    -5.4360 c3         1 I52      -0.054700
     14 C4          -2.1200    -0.3340    -4.0640 c3         1 I52       0.155500
     15 C6           0.3890     0.0430    -4.1640 c3         1 I52       0.213800
     16 S14         -0.4980    -2.2440    -3.1210 sy         1 I52       1.321200
     17 N5          -0.7570    -0.8570    -3.9800 n3         1 I52      -0.751500
     18 C3          -2.4210     0.6300    -2.9140 c          1 I52       0.644100
     19 N2          -3.5610     0.3370    -2.2690 ns         1 I52      -0.460400
     20 O21          0.8310    -2.7140    -3.4750 o          1 I52      -0.614300
     21 O41         -2.4920    -0.6450     3.2960 o          1 I52      -0.568100
     22 N27         -0.3390    -0.5670     2.5710 ns         1 I52      -0.470100
     23 C29         -0.8630     0.1640     4.8080 ca         1 I52      -0.162600
     24 C33          0.6410     1.4340     6.2040 ca         1 I52      -0.136000
     25 C34          0.2870     0.9370     4.9590 ca         1 I52      -0.084500
     26 C30         -1.6550    -0.0840     5.9290 ca         1 I52      -0.084500
     27 C32         -0.1350     1.1730     7.3300 ca         1 I52      -0.046300
     28 C16         -1.6360    -1.8230    -0.6690 ca         1 I52       0.000500
     29 C18         -0.4500    -0.9900     1.2520 ca         1 I52       0.137600
     30 C15         -0.4660    -1.7970    -1.4130 ca         1 I52      -0.338500
     31 O22         -1.6510    -3.1050    -3.3330 o          1 I52      -0.614300
     32 C20          0.7270    -1.3930    -0.8220 ca         1 I52       0.000500
     33 C17         -1.6380    -1.4190     0.6550 ca         1 I52      -0.189000
     34 C19          0.7290    -0.9910     0.4970 ca         1 I52      -0.189000
     35 H381         3.0170    -0.4120    11.1070 hc         1 I52       0.037700
     36 H382         1.4760    -0.9170    11.7610 hc         1 I52       0.037700
     37 H391         3.0590    -0.3870    13.6090 hc         1 I52       0.032700
     38 H392         3.2880     1.2400    12.9750 hc         1 I52       0.032700
     39 H393         1.7250     0.7620    13.6300 hc         1 I52       0.032700
     40 H371         0.5660     1.3840    11.4160 hc         1 I52       0.038700
     41 H372         2.1090     1.8990    10.7670 hc         1 I52       0.038700
     42 H351        -0.6020     1.9740     9.2530 hc         1 I52       0.051200
     43 H352         0.9250     2.5330     8.5910 hc         1 I52       0.051200
     44 H361         1.8930     0.2440     8.9090 hc         1 I52       0.042700
     45 H362         0.3680    -0.3080     9.5670 hc         1 I52       0.042700
     46 H251        -2.3830    -0.2750    -7.5160 hc         1 I52       0.040033
     47 H252        -1.3800    -1.3120    -6.5070 hc         1 I52       0.040033
     48 H253        -3.1340    -1.4470    -6.4320 hc         1 I52       0.040033
     49 H241        -4.5430     0.3160    -5.2530 hc         1 I52       0.040033
     50 H242        -3.8030     1.8500    -4.7800 hc         1 I52       0.040033
     51 H243        -3.9110     1.4120    -6.4750 hc         1 I52       0.040033
     52 H71          1.4780    -1.2750    -5.5100 h1         1 I52       0.049200
     53 H72          0.4870    -0.0560    -6.2980 h1         1 I52       0.049200
     54 H91          3.0160     0.0240    -7.4410 h1         1 I52       0.042450
     55 H92          1.8130     1.3180    -7.5020 h1         1 I52       0.042450
     56 H131         3.1530     0.1390    -3.7420 h1         1 I52       0.042450
     57 H132         3.8210    -0.6940    -5.1450 h1         1 I52       0.042450
     58 H121         5.4080     0.9900    -4.3430 h1         1 I52       0.049700
     59 H122         4.1630     2.2490    -4.3810 h1         1 I52       0.049700
     60 H101         4.1140     2.1380    -7.9960 h1         1 I52       0.049700
     61 H102         3.3710     2.9430    -6.6040 h1         1 I52       0.049700
     62 H31         -1.9140     0.1930     8.0290 ha         1 I52       0.137000
     63 H23         -1.6060     1.0740    -5.6120 hc         1 I52       0.069700
     64 H4          -2.8000    -1.1870    -4.0070 h1         1 I52       0.085700
     65 H61          0.0170     1.0630    -4.1850 h1         1 I52       0.067200
     66 H62          1.0480     0.0020    -3.2950 h1         1 I52       0.067200
     67 H1          -4.5170     1.7560    -1.4990 ho         1 I52       0.402000
     68 H2          -4.1140    -0.4870    -2.4550 hn         1 I52       0.343500
     69 H27          0.6070    -0.3920     2.8730 hn         1 I52       0.323500
     70 H33          1.5320     2.0430     6.2950 ha         1 I52       0.137000
     71 H34          0.9110     1.1960     4.1120 ha         1 I52       0.141500
     72 H30         -2.5590    -0.6700     5.8320 ha         1 I52       0.141500
     73 H16         -2.5620    -2.1740    -1.1020 ha         1 I52       0.147000
     74 H20          1.6580    -1.4010    -1.3720 ha         1 I52       0.147000
     75 H17         -2.5590    -1.4540     1.2110 ha         1 I52       0.152000
     76 H19          1.6610    -0.6760     0.9490 ha         1 I52       0.152000
     77 C28         -1.3210    -0.3800     3.4980 c          1 I52       0.693700
     78 C25         -2.3070    -0.7410    -6.5330 c3         1 I52      -0.093100
     79 C24         -3.7330     1.0140    -5.4760 c3         1 I52      -0.093100
     80 C7           1.1590    -0.2250    -5.4530 c3         1 I52       0.157800
     81 O26         -1.7170     1.5830    -2.6340 o          1 I52      -0.564100
     82 O1          -3.9380     1.0520    -1.1770 oh         1 I52      -0.371100
@<TRIPOS>BOND
     1     1     2 1   
     2     1     3 1   
     3     1    35 1   
     4     1    36 1   
     5     2    37 1   
     6     2    38 1   
     7     2    39 1   
     8     3     5 1   
     9     3    40 1   
    10     3    41 1   
    11     4     5 1   
    12     4    27 1   
    13     4    42 1   
    14     4    43 1   
    15     5    44 1   
    16     5    45 1   
    17     6     7 1   
    18     6     8 1   
    19     6    80 1   
    20     7    11 1   
    21     7    54 1   
    22     7    55 1   
    23     8    10 1   
    24     8    56 1   
    25     8    57 1   
    26     9    10 1   
    27     9    11 1   
    28    10    58 1   
    29    10    59 1   
    30    11    60 1   
    31    11    61 1   
    32    12    26 ar  
    33    12    27 ar  
    34    12    62 1   
    35    13    14 1   
    36    13    63 1   
    37    13    78 1   
    38    13    79 1   
    39    14    17 1   
    40    14    18 1   
    41    14    64 1   
    42    15    17 1   
    43    15    65 1   
    44    15    66 1   
    45    15    80 1   
    46    16    17 1   
    47    16    20 2   
    48    16    30 1   
    49    16    31 2   
    50    18    19 1   
    51    18    81 2   
    52    19    68 1   
    53    19    82 1   
    54    21    77 2   
    55    22    29 1   
    56    22    69 1   
    57    22    77 1   
    58    23    25 ar  
    59    23    26 ar  
    60    23    77 1   
    61    24    25 ar  
    62    24    27 ar  
    63    24    70 1   
    64    25    71 1   
    65    26    72 1   
    66    28    30 ar  
    67    28    33 ar  
    68    28    73 1   
    69    29    33 ar  
    70    29    34 ar  
    71    30    32 ar  
    72    32    34 ar  
    73    32    74 1   
    74    33    75 1   
    75    34    76 1   
    76    46    78 1   
    77    47    78 1   
    78    48    78 1   
    79    49    79 1   
    80    50    79 1   
    81    51    79 1   
    82    52    80 1   
    83    53    80 1   
    84    67    82 1   
@<TRIPOS>SUBSTRUCTURE
     1 I52         1 TEMP              0 ****  ****    0 ROOT
