@<TRIPOS>MOLECULE
I52
   82    84     1     0     0
SMALL
No Charge or Current Charge


@<TRIPOS>ATOM
      1 C38          0.0960    -0.7160    12.5580 c3         1 I52      -0.074400
      2 C39         -0.0960    -0.3370    14.0390 c3         1 I52      -0.089100
      3 C37         -0.8730     0.0290    11.6130 c3         1 I52      -0.076400
      4 C35         -1.6480     0.3890     9.1820 c3         1 I52      -0.038100
      5 C36         -0.6790    -0.3510    10.1280 c3         1 I52      -0.073400
      6 N8           1.3380    -0.6400    -7.5520 n3         1 I52      -0.728600
      7 C9           1.6150    -1.9080    -8.2980 c6         1 I52       0.131800
      8 C13          2.2490     0.4550    -8.0220 c6         1 I52       0.131800
      9 O11          2.5000    -0.6410   -10.2220 os         1 I52      -0.451000
     10 C12          2.2050     0.6180    -9.5720 c6         1 I52       0.153100
     11 C10          1.5800    -1.6920    -9.8400 c6         1 I52       0.153100
     12 C31         -2.1060    -1.1080     7.1800 ca         1 I52      -0.118000
     13 C23         -1.5890     1.5520    -3.7290 c3         1 I52      -0.054700
     14 C4          -0.1720     1.2710    -3.1390 c3         1 I52       0.155500
     15 C6           0.8590     0.3810    -5.2380 c3         1 I52       0.213800
     16 S14          1.9360    -0.4040    -2.9240 sy         1 I52       1.179600
     17 N5           0.5680     0.1400    -3.7940 n3         1 I52      -0.751500
     18 C3           0.9400     3.0820    -3.0100 c          1 I52       0.577100
     19 N2           1.1800     3.5330    -1.7150 ns         1 I52      -0.393400
     20 O21          2.9880     0.6020    -3.0900 o          1 I52      -0.543500
     21 O41         -1.4280    -2.1300     3.1040 o          1 I52      -0.568100
     22 N27          0.0440    -0.3820     2.8170 ns         1 I52      -0.144000
     23 C29         -1.0270    -0.7360     5.0090 ca         1 I52      -0.162600
     24 C33         -0.5570     0.7380     6.9130 ca         1 I52      -0.118000
     25 C34         -0.3520     0.3790     5.5690 ca         1 I52      -0.066500
     26 C30         -1.9060    -1.4720     5.8380 ca         1 I52      -0.066500
     27 C32         -1.4340    -0.0000     7.7250 ca         1 I52      -0.046300
     28 C16          0.3440    -1.2900    -0.8310 ca         1 I52       0.018500
     29 C18          0.4590    -0.4370     1.4590 ca         1 I52       0.045000
     30 C15          1.3770    -0.4150    -1.2150 ca         1 I52      -0.338500
     31 O22          2.1210    -1.8040    -3.3160 o          1 I52      -0.543500
     32 C20          1.9580     0.4430    -0.2650 ca         1 I52       0.018500
     33 C17         -0.1140    -1.2970     0.4970 ca         1 I52      -0.171000
     34 C19          1.4940     0.4310     1.0610 ca         1 I52      -0.171000
     35 H381         1.1300    -0.4970    12.2650 hc         1 I52       0.037700
     36 H382        -0.0470    -1.7980    12.4450 hc         1 I52       0.037700
     37 H391         0.6100    -0.8900    14.6700 hc         1 I52       0.032700
     38 H392         0.0750     0.7350    14.1910 hc         1 I52       0.032700
     39 H393        -1.1140    -0.5760    14.3720 hc         1 I52       0.032700
     40 H371        -1.9060    -0.1920    11.9100 hc         1 I52       0.038700
     41 H372        -0.7290     1.1100    11.7300 hc         1 I52       0.038700
     42 H351        -2.6810     0.1700     9.4810 hc         1 I52       0.051200
     43 H352        -1.5170     1.4710     9.3060 hc         1 I52       0.051200
     44 H361         0.3530    -0.1280     9.8290 hc         1 I52       0.042700
     45 H362        -0.8190    -1.4330    10.0100 hc         1 I52       0.042700
     46 H251        -3.4430     0.5000    -4.2410 hc         1 I52       0.040033
     47 H252        -1.9850    -0.4660    -4.5070 hc         1 I52       0.040033
     48 H253        -2.5800    -0.1990    -2.8540 hc         1 I52       0.040033
     49 H241        -2.4780     2.3110    -1.8720 hc         1 I52       0.040033
     50 H242        -1.7800     3.5790    -2.9050 hc         1 I52       0.040033
     51 H243        -3.3230     2.8330    -3.3450 hc         1 I52       0.040033
     52 H71          2.3620    -1.1100    -5.7560 h1         1 I52       0.049200
     53 H72          0.6920    -1.6850    -5.8230 h1         1 I52       0.049200
     54 H91          2.6030    -2.3050    -8.0220 h1         1 I52       0.042450
     55 H92          0.8740    -2.6760    -8.0330 h1         1 I52       0.042450
     56 H131         1.9690     1.4160    -7.5680 h1         1 I52       0.042450
     57 H132         3.2860     0.2450    -7.7200 h1         1 I52       0.042450
     58 H121         2.9420     1.3690    -9.8900 h1         1 I52       0.049700
     59 H122         1.2080     0.9630    -9.8840 h1         1 I52       0.049700
     60 H101         1.8620    -2.6220   -10.3550 h1         1 I52       0.049700
     61 H102         0.5640    -1.4190   -10.1590 h1         1 I52       0.049700
     62 H31         -2.7850    -1.6910     7.7980 ha         1 I52       0.119000
     63 H23         -1.4690     1.9630    -4.7380 hc         1 I52       0.069700
     64 H4          -0.3780     1.0080    -2.0960 h1         1 I52       0.085700
     65 H61         -0.0480     0.7270    -5.7450 h1         1 I52       0.067200
     66 H62          1.5960     1.1890    -5.3410 h1         1 I52       0.067200
     67 H1           1.6300     5.2280    -0.8910 ho         1 I52       0.441000
     68 H2           0.9480     2.9340    -0.9230 hn         1 I52       0.343500
     69 H27          0.4720     0.3710     3.3380 hn         1 I52       0.157000
     70 H33         -0.0270     1.5940     7.3240 ha         1 I52       0.119000
     71 H34          0.3360     0.9810     4.9810 ha         1 I52       0.123500
     72 H30         -2.4410    -2.3340     5.4440 ha         1 I52       0.123500
     73 H16         -0.1140    -1.9560    -1.5620 ha         1 I52       0.129000
     74 H20          2.7660     1.1190    -0.5410 ha         1 I52       0.129000
     75 H17         -0.9230    -1.9730     0.7520 ha         1 I52       0.134000
     76 H19          1.9500     1.1010     1.7870 ha         1 I52       0.134000
     77 C28         -0.8360    -1.1580     3.5610 c          1 I52       0.626700
     78 C25         -2.4500     0.2680    -3.8380 c3         1 I52      -0.093100
     79 C24         -2.3350     2.6340    -2.9110 c3         1 I52      -0.093100
     80 C7           1.3470    -0.8400    -6.0740 c3         1 I52       0.157800
     81 O26          1.3380     3.6840    -4.0000 o          1 I52      -0.564100
     82 O1           2.1330     4.5960    -1.4570 oh         1 I52      -0.410100
@<TRIPOS>BOND
     1     1     2 1   
     2     1     3 1   
     3     1    35 1   
     4     1    36 1   
     5     2    37 1   
     6     2    38 1   
     7     2    39 1   
     8     3     5 1   
     9     3    40 1   
    10     3    41 1   
    11     4     5 1   
    12     4    27 1   
    13     4    42 1   
    14     4    43 1   
    15     5    44 1   
    16     5    45 1   
    17     6     7 1   
    18     6     8 1   
    19     6    80 1   
    20     7    11 1   
    21     7    54 1   
    22     7    55 1   
    23     8    10 1   
    24     8    56 1   
    25     8    57 1   
    26     9    10 1   
    27     9    11 1   
    28    10    58 1   
    29    10    59 1   
    30    11    60 1   
    31    11    61 1   
    32    12    26 ar  
    33    12    27 ar  
    34    12    62 1   
    35    13    14 1   
    36    13    63 1   
    37    13    78 1   
    38    13    79 1   
    39    14    17 1   
    40    14    18 1   
    41    14    64 1   
    42    15    17 1   
    43    15    65 1   
    44    15    66 1   
    45    15    80 1   
    46    16    17 1   
    47    16    20 2   
    48    16    30 1   
    49    16    31 2   
    50    18    19 1   
    51    18    81 2   
    52    19    68 1   
    53    19    82 1   
    54    21    77 2   
    55    22    29 1   
    56    22    69 1   
    57    22    77 1   
    58    23    25 ar  
    59    23    26 ar  
    60    23    77 1   
    61    24    25 ar  
    62    24    27 ar  
    63    24    70 1   
    64    25    71 1   
    65    26    72 1   
    66    28    30 ar  
    67    28    33 ar  
    68    28    73 1   
    69    29    33 ar  
    70    29    34 ar  
    71    30    32 ar  
    72    32    34 ar  
    73    32    74 1   
    74    33    75 1   
    75    34    76 1   
    76    46    78 1   
    77    47    78 1   
    78    48    78 1   
    79    49    79 1   
    80    50    79 1   
    81    51    79 1   
    82    52    80 1   
    83    53    80 1   
    84    67    82 1   
@<TRIPOS>SUBSTRUCTURE
     1 I52         1 TEMP              0 ****  ****    0 ROOT
