@<TRIPOS>MOLECULE
I53
   52    55     1     0     0
SMALL
bcc


@<TRIPOS>ATOM
      1 C1           2.4220     1.8520    -0.8180 c3         1 I53       0.045300
      2 C2           2.5140    -0.6570    -1.1090 cc         1 I53      -0.062300
      3 C3           1.1190    -0.7890    -1.6130 c3         1 I53       0.216000
      4 C4          -1.2110    -0.4470    -1.0750 c3         1 I53       0.162800
      5 C6          -3.6190    -0.0910    -0.4540 c3         1 I53       0.222800
      6 C7          -5.8660     0.1840     0.4940 cc         1 I53       0.651700
      7 C8          -7.9590     0.3880     0.8400 ca         1 I53       0.106400
      8 C9          -9.2310     0.6690     1.3310 ca         1 I53      -0.087000
      9 C11        -10.1780    -0.4400    -0.6130 ca         1 I53      -0.127000
     10 C12         -8.9160    -0.7320    -1.1210 ca         1 I53      -0.129000
     11 C13         -7.8300    -0.3080    -0.3760 ca         1 I53      -0.088200
     12 C14          3.4320    -1.6500    -0.9090 cd         1 I53      -0.167200
     13 C15          4.6130    -1.0290    -0.4200 ca         1 I53      -0.098800
     14 C16          5.8770    -1.4750    -0.0390 ca         1 I53       0.083400
     15 C17          6.8390    -0.5890     0.3980 ca         1 I53      -0.145000
     16 C18          6.5270     0.7750     0.4530 ca         1 I53       0.049400
     17 C20          4.3470     0.3550    -0.3410 ca         1 I53      -0.034200
     18 CL1          7.7560     1.8710     1.0010 cl         1 I53      -0.108400
     19 CL           6.2330    -3.1650    -0.1230 cl         1 I53      -0.102400
     20 C19          5.2950     1.2800     0.0930 ca         1 I53      -0.137000
     21 N            3.0660     0.5580    -0.7670 na         1 I53      -0.039400
     22 C            1.9270     2.2980     0.5490 c3         1 I53       0.117400
     23 O            1.3900     3.5910     0.3910 oh         1 I53      -0.600800
     24 N1           0.1540    -0.4280    -0.5910 n7         1 I53      -0.814200
     25 C5          -2.1820    -0.0910     0.0380 c3         1 I53      -0.094400
     26 N2          -4.5240     0.2140     0.6360 nu         1 I53      -0.838200
     27 N4          -6.4710    -0.4170    -0.5690 na         1 I53      -0.302300
     28 N3          -6.7210     0.6830     1.3570 nd         1 I53      -0.646100
     29 C10        -10.3300     0.2480     0.5930 ca         1 I53      -0.143000
     30 H1           3.1350     2.5760    -1.2190 h1         1 I53       0.071700
     31 H2           1.5890     1.8050    -1.5160 h1         1 I53       0.071700
     32 H3           0.9710    -0.1270    -2.4720 h1         1 I53       0.048200
     33 H4           0.9930    -1.8130    -1.9920 h1         1 I53       0.048200
     34 H5          -1.2970     0.2860    -1.8830 h1         1 I53       0.032700
     35 H6          -1.4940    -1.4200    -1.5080 h1         1 I53       0.032700
     36 H7          -3.7290     0.6220    -1.2800 h1         1 I53       0.035200
     37 H8          -3.8600    -1.0820    -0.8480 h1         1 I53       0.035200
     38 H9          -9.3580     1.2020     2.2650 ha         1 I53       0.144000
     39 H10        -11.0560    -0.7510    -1.1640 ha         1 I53       0.129000
     40 H11         -8.7950    -1.2680    -2.0530 ha         1 I53       0.131000
     41 H12          3.2710    -2.7000    -1.0950 ha         1 I53       0.163000
     42 H13          7.8170    -0.9380     0.6950 ha         1 I53       0.161000
     43 H14          5.0890     2.3400     0.1470 ha         1 I53       0.155000
     44 H15          1.1790     1.5790     0.8980 h1         1 I53       0.037700
     45 H16          2.7580     2.2890     1.2660 h1         1 I53       0.037700
     46 H17          1.0460     3.8810     1.2400 ho         1 I53       0.412000
     47 H18          0.2440    -1.0760     0.1830 hn         1 I53       0.363800
     48 H20         -2.0850    -0.8100     0.8580 hc         1 I53       0.059200
     49 H21         -1.9230     0.8930     0.4380 hc         1 I53       0.059200
     50 H22         -4.1950     0.8640     1.3320 hn         1 I53       0.449800
     51 H23         -6.0160    -0.8670    -1.3470 hn         1 I53       0.301700
     52 H25        -11.3260     0.4560     0.9610 ha         1 I53       0.130000
@<TRIPOS>BOND
     1     1    21 1   
     2     1    22 1   
     3     1    30 1   
     4     1    31 1   
     5     2     3 1   
     6     2    12 2   
     7     2    21 1   
     8     3    24 1   
     9     3    32 1   
    10     3    33 1   
    11     4    24 1   
    12     4    25 1   
    13     4    34 1   
    14     4    35 1   
    15     5    25 1   
    16     5    26 1   
    17     5    36 1   
    18     5    37 1   
    19     6    26 1   
    20     6    27 1   
    21     6    28 2   
    22     7     8 ar  
    23     7    11 ar  
    24     7    28 1   
    25     8    29 ar  
    26     8    38 1   
    27     9    10 ar  
    28     9    29 ar  
    29     9    39 1   
    30    10    11 ar  
    31    10    40 1   
    32    11    27 1   
    33    12    13 1   
    34    12    41 1   
    35    13    14 ar  
    36    13    17 ar  
    37    14    15 ar  
    38    14    19 1   
    39    15    16 ar  
    40    15    42 1   
    41    16    18 1   
    42    16    20 ar  
    43    17    20 ar  
    44    17    21 1   
    45    20    43 1   
    46    22    23 1   
    47    22    44 1   
    48    22    45 1   
    49    23    46 1   
    50    24    47 1   
    51    25    48 1   
    52    25    49 1   
    53    26    50 1   
    54    27    51 1   
    55    29    52 1   
@<TRIPOS>SUBSTRUCTURE
     1 I53         1 TEMP              0 ****  ****    0 ROOT
