@<TRIPOS>MOLECULE
I53
   52    55     1     0     0
SMALL
No Charge or Current Charge


@<TRIPOS>ATOM
      1 C1           2.6670     2.0090    -0.9860 c3         1 I53       0.074600
      2 C2           2.5710    -0.5730    -1.1780 cc         1 I53      -0.062300
      3 C3           1.2110    -0.7180    -1.8120 c3         1 I53       0.216000
      4 C4          -1.2230    -0.5880    -1.3110 c3         1 I53       0.162800
      5 C6          -3.6840    -0.3610    -0.6530 c3         1 I53       0.222800
      6 C7          -5.9500    -0.0320     0.4010 cc         1 I53       0.651700
      7 C8          -7.9920     0.1870     0.9740 ca         1 I53       0.106400
      8 C9          -9.1940     0.4190     1.6580 ca         1 I53      -0.069000
      9 C11        -10.4040    -0.1650    -0.3990 ca         1 I53      -0.109000
     10 C12         -9.1830    -0.3940    -1.0680 ca         1 I53      -0.111000
     11 C13         -8.0040    -0.2040    -0.3380 ca         1 I53      -0.088200
     12 C14          3.4810    -1.5500    -0.7990 cd         1 I53      -0.217200
     13 C15          4.6610    -0.9540    -0.2220 ca         1 I53      -0.098800
     14 C16          5.8340    -1.5160     0.3020 ca         1 I53       0.175000
     15 C17          6.8160    -0.6390     0.8040 ca         1 I53      -0.127000
     16 C18          6.6020     0.7580     0.7710 ca         1 I53       0.141000
     17 C20          4.4490     0.3970    -0.2570 ca         1 I53      -0.034200
     18 Cl1          7.8350     1.8410     1.4040 cl         1 I53      -0.200000
     19 Cl           6.0790    -3.2590     0.3350 cl         1 I53      -0.194000
     20 C19          5.4100     1.2940     0.2380 ca         1 I53      -0.119000
     21 N            3.2020     0.6420    -0.8280 na         1 I53      -0.068700
     22 C            2.0230     2.5550     0.3060 c3         1 I53       0.140600
     23 O            1.5860     3.9090     0.1080 oh         1 I53      -0.663000
     24 N1           0.1560    -0.4650    -0.8130 n7         1 I53      -0.869400
     25 C5          -2.2210    -0.2650    -0.1840 c3         1 I53      -0.094400
     26 N2          -4.6010    -0.0510     0.4470 nu         1 I53      -0.893400
     27 N4          -6.7030    -0.3460    -0.7110 na         1 I53      -0.352600
     28 N3          -6.6890     0.3000     1.4590 nd         1 I53      -0.646100
     29 C10        -10.4090     0.2390     0.9590 ca         1 I53      -0.125000
     30 H1           3.4810     2.6740    -1.3000 h1         1 I53       0.071700
     31 H2           1.9170     2.0060    -1.7850 h1         1 I53       0.071700
     32 H3           1.1290    -0.0150    -2.6520 h1         1 I53       0.048200
     33 H4           1.1180    -1.7330    -2.2230 h1         1 I53       0.048200
     34 H5          -1.3900     0.1070    -2.1460 h1         1 I53       0.032700
     35 H6          -1.4100    -1.6060    -1.6780 h1         1 I53       0.032700
     36 H7          -3.8460     0.3420    -1.4810 h1         1 I53       0.035200
     37 H8          -3.8790    -1.3760    -1.0240 h1         1 I53       0.035200
     38 H9          -9.1890     0.7290     2.7000 ha         1 I53       0.126000
     39 H10        -11.3450    -0.3010    -0.9280 ha         1 I53       0.111000
     40 H11         -9.1610    -0.7050    -2.1100 ha         1 I53       0.113000
     41 H12          3.3170    -2.6180    -0.9210 ha         1 I53       0.213000
     42 H13          7.7370    -1.0380     1.2170 ha         1 I53       0.143000
     43 H14          5.2530     2.3690     0.2180 ha         1 I53       0.137000
     44 H15          1.1750     1.9140     0.5810 h1         1 I53       0.037700
     45 H16          2.7580     2.5080     1.1210 h1         1 I53       0.037700
     46 H17          1.1630     4.2010     0.9470 ho         1 I53       0.451000
     47 H18          0.2870    -1.1380    -0.0480 hn         1 I53       0.419000
     48 H20         -2.0620    -0.9590     0.6500 hc         1 I53       0.059200
     49 H21         -2.0260     0.7480     0.1890 hc         1 I53       0.059200
     50 H22         -4.2250     0.2300     1.3490 hn         1 I53       0.505000
     51 H23         -6.3410    -0.6230    -1.6100 hn         1 I53       0.352000
     52 H25        -11.3550     0.4130     1.4670 ha         1 I53       0.112000
@<TRIPOS>BOND
     1     1    21 1   
     2     1    22 1   
     3     1    30 1   
     4     1    31 1   
     5     2     3 1   
     6     2    12 2   
     7     2    21 1   
     8     3    24 1   
     9     3    32 1   
    10     3    33 1   
    11     4    24 1   
    12     4    25 1   
    13     4    34 1   
    14     4    35 1   
    15     5    25 1   
    16     5    26 1   
    17     5    36 1   
    18     5    37 1   
    19     6    26 1   
    20     6    27 1   
    21     6    28 2   
    22     7     8 ar  
    23     7    11 ar  
    24     7    28 1   
    25     8    29 ar  
    26     8    38 1   
    27     9    10 ar  
    28     9    29 ar  
    29     9    39 1   
    30    10    11 ar  
    31    10    40 1   
    32    11    27 1   
    33    12    13 1   
    34    12    41 1   
    35    13    14 ar  
    36    13    17 ar  
    37    14    15 ar  
    38    14    19 1   
    39    15    16 ar  
    40    15    42 1   
    41    16    18 1   
    42    16    20 ar  
    43    17    20 ar  
    44    17    21 1   
    45    20    43 1   
    46    22    23 1   
    47    22    44 1   
    48    22    45 1   
    49    23    46 1   
    50    24    47 1   
    51    25    48 1   
    52    25    49 1   
    53    26    50 1   
    54    27    51 1   
    55    29    52 1   
@<TRIPOS>SUBSTRUCTURE
     1 I53         1 TEMP              0 ****  ****    0 ROOT
