@<TRIPOS>MOLECULE
I55
   55    57     1     0     0
SMALL
bcc


@<TRIPOS>ATOM
      1 C4         -11.2420   -16.5440    -6.8630 c6         1 I55       0.365300
      2 C14         -7.0500   -15.5940    -8.8520 c          1 I55       0.756100
      3 C5         -13.2130   -15.6610    -5.9280 c2         1 I55       0.809100
      4 C6         -15.2790   -14.8450    -5.3990 c5         1 I55       0.111500
      5 C11         -9.1890   -17.7240    -6.8930 c6         1 I55       0.154100
      6 C7         -16.3020   -14.5990    -4.3240 c          1 I55       0.721500
      7 C8         -17.8170   -16.1510    -5.6210 c6         1 I55       0.077000
      8 C9         -16.7300   -16.3670    -6.6860 c6         1 I55       0.146100
      9 C10        -15.4220   -16.2540    -5.9390 c5         1 I55       0.194500
     10 C12         -8.0180   -18.0820    -5.9990 c3         1 I55       0.148400
     11 C13         -8.7480   -17.1300    -8.2220 c6         1 I55       0.104100
     12 N1         -14.8730   -13.3230    -9.5970 n8         1 I55      -0.858800
     13 N2         -12.1310   -15.6150    -8.9620 ns         1 I55      -0.579900
     14 C3         -10.9280   -15.8780    -8.2190 c6         1 I55       0.077700
     15 N3         -11.9430   -15.6610    -6.0020 n2         1 I55      -0.691900
     16 C1         -14.0040   -14.4390    -9.8920 c3         1 I55       0.075800
     17 C2         -12.7370   -14.4130    -9.0460 c          1 I55       0.671100
     18 O1         -12.2980   -13.3960    -8.5370 o          1 I55      -0.567100
     19 N4         -13.8870   -14.8480    -5.0330 nu         1 I55      -0.791200
     20 O2         -16.0840   -13.9330    -3.3270 o          1 I55      -0.604500
     21 N5         -17.5080   -15.1200    -4.6320 ns         1 I55      -0.583900
     22 O3         -16.7570   -15.4210    -7.7200 oh         1 I55      -0.584800
     23 N6         -14.1610   -16.3850    -6.6320 nu         1 I55      -0.856200
     24 O4         -10.0290   -16.8340    -6.1970 os         1 I55      -0.367600
     25 O5          -8.5010   -18.8450    -4.9190 oh         1 I55      -0.588800
     26 O6          -7.9630   -15.9750    -7.9430 os         1 I55      -0.422900
     27 N7          -6.4140   -14.4850    -8.4480 nt         1 I55      -0.664000
     28 O7          -6.8340   -16.1890    -9.8860 o          1 I55      -0.604000
     29 C15         -9.9760   -16.7350    -9.0530 c6         1 I55       0.115100
     30 O8         -10.6780   -17.8900    -9.4510 oh         1 I55      -0.609800
     31 H1         -11.7750   -17.4950    -7.0540 h2         1 I55       0.010700
     32 H2         -15.4800   -14.1160    -6.1980 h1         1 I55       0.090700
     33 H3          -9.7260   -18.6550    -7.1340 h1         1 I55       0.060700
     34 H4         -18.7610   -15.8980    -6.1070 h1         1 I55       0.046700
     35 H5         -17.9730   -17.1010    -5.1030 h1         1 I55       0.046700
     36 H6         -16.8630   -17.3840    -7.0750 h1         1 I55       0.046700
     37 H7         -15.4740   -16.9600    -5.0960 h1         1 I55       0.057700
     38 H8          -7.2920   -18.6430    -6.6020 h1         1 I55       0.032700
     39 H9          -7.5170   -17.1690    -5.6580 h1         1 I55       0.032700
     40 H10         -8.1570   -17.8690    -8.7710 h1         1 I55       0.072700
     41 H11        -15.5930   -13.2720   -10.3060 hn         1 I55       0.343300
     42 H12        -15.3570   -13.4980    -8.7260 hn         1 I55       0.343300
     43 H14        -12.5920   -16.4090    -9.3780 hn         1 I55       0.313500
     44 H15        -10.4440   -14.9220    -8.0100 h1         1 I55       0.117700
     45 H16        -14.4810   -15.4230    -9.7930 h1         1 I55       0.038700
     46 H17        -13.6840   -14.3680   -10.9360 h1         1 I55       0.038700
     47 H18        -13.4410   -13.9740    -4.8010 hn         1 I55       0.453800
     48 H19        -18.2400   -14.9420    -3.9590 hn         1 I55       0.317500
     49 H20        -17.5680   -15.5350    -8.2260 ho         1 I55       0.409000
     50 H21        -13.8990   -17.2920    -6.9870 hn         1 I55       0.418800
     51 H22         -7.7680   -19.0170    -4.3220 ho         1 I55       0.406000
     52 H23         -5.7220   -14.0660    -9.0430 hn         1 I55       0.334500
     53 H24         -6.6560   -14.0100    -7.5950 hn         1 I55       0.334500
     54 H25         -9.6570   -16.1530    -9.9280 h1         1 I55       0.065700
     55 H26        -10.1870   -18.3250   -10.1560 ho         1 I55       0.415000
@<TRIPOS>BOND
     1     1    14 1   
     2     1    15 1   
     3     1    24 1   
     4     1    31 1   
     5     2    26 1   
     6     2    27 1   
     7     2    28 2   
     8     3    15 2   
     9     3    19 1   
    10     3    23 1   
    11     4     6 1   
    12     4     9 1   
    13     4    19 1   
    14     4    32 1   
    15     5    10 1   
    16     5    11 1   
    17     5    24 1   
    18     5    33 1   
    19     6    20 2   
    20     6    21 1   
    21     7     8 1   
    22     7    21 1   
    23     7    34 1   
    24     7    35 1   
    25     8     9 1   
    26     8    22 1   
    27     8    36 1   
    28     9    23 1   
    29     9    37 1   
    30    10    25 1   
    31    10    38 1   
    32    10    39 1   
    33    11    26 1   
    34    11    29 1   
    35    11    40 1   
    36    12    16 1   
    37    12    41 1   
    38    12    42 1   
    39    13    14 1   
    40    13    17 1   
    41    13    43 1   
    42    14    29 1   
    43    14    44 1   
    44    16    17 1   
    45    16    45 1   
    46    16    46 1   
    47    17    18 2   
    48    19    47 1   
    49    21    48 1   
    50    22    49 1   
    51    23    50 1   
    52    25    51 1   
    53    27    52 1   
    54    27    53 1   
    55    29    30 1   
    56    29    54 1   
    57    30    55 1   
@<TRIPOS>SUBSTRUCTURE
     1 I55         1 TEMP              0 ****  ****    0 ROOT
