@<TRIPOS>MOLECULE
I55
   55    57     1     0     0
SMALL
No Charge or Current Charge


@<TRIPOS>ATOM
      1 C4         -11.1850   -16.4110    -6.7420 c6         1 I55       0.388500
      2 C14         -7.0950   -15.6500    -9.0780 c          1 I55       0.640100
      3 C5         -13.2060   -15.5790    -5.7840 c2         1 I55       0.809100
      4 C6         -15.3000   -14.7600    -5.5180 c5         1 I55       0.111500
      5 C11         -9.2010   -17.8060    -6.8490 c6         1 I55       0.177300
      6 C7         -16.4730   -14.3810    -4.5430 c          1 I55       0.579000
      7 C8         -17.8940   -16.1640    -5.7790 c6         1 I55       0.077000
      8 C9         -16.6680   -16.5900    -6.6370 c6         1 I55       0.169300
      9 C10        -15.3750   -16.2650    -5.8470 c5         1 I55       0.194500
     10 C12         -7.9890   -18.2740    -5.9780 c3         1 I55       0.171600
     11 C13         -8.7610   -17.2230    -8.2240 c6         1 I55       0.127300
     12 N1         -15.2390   -13.6360    -9.1890 n8         1 I55      -0.969200
     13 N2         -12.0720   -15.3450    -8.8960 ns         1 I55      -0.512900
     14 C3         -10.8630   -15.7510    -8.1350 c6         1 I55       0.077700
     15 N3         -11.9460   -15.5220    -5.8560 n2         1 I55      -0.691900
     16 C1         -13.9150   -13.9530    -9.8220 c3         1 I55       0.075800
     17 C2         -12.6720   -14.1030    -8.8780 c          1 I55       0.604100
     18 O1         -12.2350   -13.1820    -8.2000 o          1 I55      -0.567100
     19 N4         -13.8950   -14.7240    -5.0020 nu         1 I55      -0.846400
     20 O2         -16.4170   -13.5700    -3.6300 o          1 I55      -0.529000
     21 N5         -17.6530   -15.0680    -4.8020 ns         1 I55      -0.516900
     22 O3         -16.7020   -15.9350    -7.9220 oh         1 I55      -0.647000
     23 N6         -14.0330   -16.4200    -6.4630 nu         1 I55      -0.911400
     24 O4          -9.9600   -16.8170    -6.1090 os         1 I55      -0.414000
     25 O5          -8.3830   -18.8570    -4.7190 oh         1 I55      -0.711000
     26 O6          -7.8150   -16.1400    -8.0340 os         1 I55      -0.446100
     27 N7          -6.3280   -14.6340    -8.6670 nt         1 I55      -0.597000
     28 O7          -7.1210   -16.0570   -10.2240 o          1 I55      -0.555000
     29 C15        -10.0260   -16.7430    -9.0020 c6         1 I55       0.138300
     30 O8         -10.8410   -17.8660    -9.4040 oh         1 I55      -0.672000
     31 H1         -11.7760   -17.3210    -6.9210 h2         1 I55       0.010700
     32 H2         -15.4240   -14.1570    -6.4270 h1         1 I55       0.090700
     33 H3          -9.8420   -18.6830    -7.0210 h1         1 I55       0.060700
     34 H4         -18.7320   -15.8770    -6.4310 h1         1 I55       0.046700
     35 H5         -18.2280   -17.0390    -5.2020 h1         1 I55       0.046700
     36 H6         -16.7150   -17.6780    -6.7890 h1         1 I55       0.046700
     37 H7         -15.4230   -16.8420    -4.9110 h1         1 I55       0.057700
     38 H8          -7.4110   -19.0020    -6.5630 h1         1 I55       0.032700
     39 H9          -7.3360   -17.4090    -5.8000 h1         1 I55       0.032700
     40 H10         -8.2620   -18.0200    -8.7950 h1         1 I55       0.072700
     41 H11        -15.9600   -13.5770    -9.9180 hn         1 I55       0.398500
     42 H12        -15.5480   -14.4450    -8.6240 hn         1 I55       0.398500
     43 H14        -12.5120   -16.0520    -9.4740 hn         1 I55       0.313500
     44 H15        -10.2510   -14.8570    -7.9450 h1         1 I55       0.117700
     45 H16        -14.0270   -14.8850   -10.3930 h1         1 I55       0.038700
     46 H17        -13.6770   -13.1580   -10.5410 h1         1 I55       0.038700
     47 H18        -13.4050   -13.8430    -4.8880 hn         1 I55       0.509000
     48 H19        -18.4250   -14.8140    -4.1950 hn         1 I55       0.317500
     49 H20        -17.3920   -16.3920    -8.4530 ho         1 I55       0.448000
     50 H21        -13.6470   -17.3440    -6.6100 hn         1 I55       0.474000
     51 H22         -7.5560   -19.0400    -4.2150 ho         1 I55       0.505000
     52 H23         -5.7290   -14.1640    -9.3280 hn         1 I55       0.334500
     53 H24         -6.3570   -14.3540    -7.7000 hn         1 I55       0.334500
     54 H25         -9.6990   -16.2000    -9.9010 h1         1 I55       0.065700
     55 H26        -10.4280   -18.2550   -10.2080 ho         1 I55       0.454000
@<TRIPOS>BOND
     1     1    14 1   
     2     1    15 1   
     3     1    24 1   
     4     1    31 1   
     5     2    26 1   
     6     2    27 1   
     7     2    28 2   
     8     3    15 2   
     9     3    19 1   
    10     3    23 1   
    11     4     6 1   
    12     4     9 1   
    13     4    19 1   
    14     4    32 1   
    15     5    10 1   
    16     5    11 1   
    17     5    24 1   
    18     5    33 1   
    19     6    20 2   
    20     6    21 1   
    21     7     8 1   
    22     7    21 1   
    23     7    34 1   
    24     7    35 1   
    25     8     9 1   
    26     8    22 1   
    27     8    36 1   
    28     9    23 1   
    29     9    37 1   
    30    10    25 1   
    31    10    38 1   
    32    10    39 1   
    33    11    26 1   
    34    11    29 1   
    35    11    40 1   
    36    12    16 1   
    37    12    41 1   
    38    12    42 1   
    39    13    14 1   
    40    13    17 1   
    41    13    43 1   
    42    14    29 1   
    43    14    44 1   
    44    16    17 1   
    45    16    45 1   
    46    16    46 1   
    47    17    18 2   
    48    19    47 1   
    49    21    48 1   
    50    22    49 1   
    51    23    50 1   
    52    25    51 1   
    53    27    52 1   
    54    27    53 1   
    55    29    30 1   
    56    29    54 1   
    57    30    55 1   
@<TRIPOS>SUBSTRUCTURE
     1 I55         1 TEMP              0 ****  ****    0 ROOT
