@<TRIPOS>MOLECULE
I57
   57    59     1     0     0
SMALL
bcc


@<TRIPOS>ATOM
      1 O1A         -1.0670    -4.7060    -0.9950 o          1 I57      -0.788300
      2 O1B         -2.9300    -4.1610     0.1110 o          1 I57      -0.788300
      3 C01         -1.8840    -3.9080    -0.5040 c          1 I57       0.935800
      4 C02         -1.5510    -2.4250    -0.6720 ce         1 I57       0.063900
      5 C03         -0.4500    -1.9920    -1.2900 c2         1 I57      -0.383200
      6 C04         -0.1240    -0.5400    -1.3960 c6         1 I57       0.096200
      7 N04          1.2920    -0.2900    -1.1820 na         1 I57       0.130400
      8 C05         -0.9470     0.2570    -0.3760 c6         1 I57       0.055700
      9 N05         -0.8210     1.6680    -0.6030 ns         1 I57      -0.566900
     10 C06         -2.3960    -0.2210    -0.4640 c6         1 I57       0.102100
     11 O06         -2.4730    -1.6000    -0.1360 os         1 I57      -0.290900
     12 C07         -3.3160     0.5140     0.5080 c3         1 I57       0.133100
     13 O07         -2.8380     0.4300     1.8280 oh         1 I57      -0.596800
     14 C08         -4.7770     0.0410     0.3990 c3         1 I57       0.109100
     15 O08         -5.2230     0.0680    -0.9380 oh         1 I57      -0.562800
     16 C09         -5.6760     0.8620     1.3100 c3         1 I57       0.103400
     17 O09         -6.9830     0.3410     1.2450 oh         1 I57      -0.582800
     18 C41          2.1000    -0.8130    -0.2470 cc         1 I57      -0.183600
     19 C42          3.2860    -0.1360    -0.4110 cd         1 I57       0.290800
     20 N42          3.1120     0.7460    -1.4230 nd         1 I57      -0.375000
     21 N41          1.9130     0.6490    -1.8750 nc         1 I57      -0.232800
     22 C43          4.5480    -0.2730     0.3110 ca         1 I57      -0.076500
     23 C44          4.7240    -1.2850     1.2550 ca         1 I57      -0.115500
     24 C45          5.9230    -1.4130     1.9400 ca         1 I57      -0.135000
     25 C46          6.9680    -0.5320     1.6920 ca         1 I57      -0.143000
     26 C47          6.8020     0.4770     0.7520 ca         1 I57      -0.135000
     27 C48          5.6040     0.6070     0.0680 ca         1 I57      -0.115500
     28 C54         -0.8060     4.7680     0.5550 c3         1 I57      -0.082100
     29 C52          0.0800     3.9010    -0.3430 c3         1 I57      -0.137700
     30 C53          1.5260     4.3810    -0.3290 c3         1 I57      -0.082100
     31 C51         -0.0000     2.4600     0.1250 c          1 I57       0.675100
     32 O52          0.6060     2.0630     1.1050 o          1 I57      -0.589100
     33 H2           0.2180    -2.7150    -1.7360 ha         1 I57       0.174000
     34 H3          -0.3270    -0.1600    -2.4020 h1         1 I57       0.072700
     35 H4          -0.5680     0.0490     0.6270 h1         1 I57       0.111700
     36 H5          -1.2160     2.0470    -1.4500 hn         1 I57       0.304500
     37 H6          -2.7580    -0.0740    -1.4900 h1         1 I57       0.054700
     38 H7          -3.2820     1.5770     0.2420 h1         1 I57       0.056700
     39 H8          -2.8390    -0.4950     2.0970 ho         1 I57       0.427000
     40 H9          -4.8350    -1.0090     0.7090 h1         1 I57       0.123700
     41 H10         -5.2880     0.9860    -1.2240 ho         1 I57       0.381000
     42 H11         -5.2800     0.8310     2.3300 h1         1 I57       0.021200
     43 H12         -5.6430     1.9150     0.9880 h1         1 I57       0.021200
     44 H13         -7.5200     0.8070     1.8910 ho         1 I57       0.392000
     45 H14          1.7820    -1.5870     0.4300 h4         1 I57       0.202000
     46 H15          3.9240    -1.9860     1.4580 ha         1 I57       0.140000
     47 H16          6.0400    -2.2050     2.6680 ha         1 I57       0.121000
     48 H17          7.9040    -0.6320     2.2260 ha         1 I57       0.118000
     49 H18          7.6110     1.1680     0.5500 ha         1 I57       0.121000
     50 H19          5.4850     1.3980    -0.6610 ha         1 I57       0.140000
     51 H20         -0.7710     5.8070     0.2290 hc         1 I57       0.040367
     52 H21         -1.8480     4.4450     0.5260 hc         1 I57       0.040367
     53 H22         -0.4670     4.7290     1.5910 hc         1 I57       0.040367
     54 H23         -0.3000     3.9700    -1.3670 hc         1 I57       0.045700
     55 H24          1.9320     4.3730     0.6820 hc         1 I57       0.040367
     56 H25          2.1640     3.7540    -0.9540 hc         1 I57       0.040367
     57 H26          1.5860     5.4020    -0.7070 hc         1 I57       0.040367
@<TRIPOS>BOND
     1     1     3 1   
     2     2     3 1   
     3     3     4 1   
     4     4     5 2   
     5     4    11 1   
     6     5     6 1   
     7     5    33 1   
     8     6     7 1   
     9     6     8 1   
    10     6    34 1   
    11     7    18 1   
    12     7    21 1   
    13     8     9 1   
    14     8    10 1   
    15     8    35 1   
    16     9    31 1   
    17     9    36 1   
    18    10    11 1   
    19    10    12 1   
    20    10    37 1   
    21    12    13 1   
    22    12    14 1   
    23    12    38 1   
    24    13    39 1   
    25    14    15 1   
    26    14    16 1   
    27    14    40 1   
    28    15    41 1   
    29    16    17 1   
    30    16    42 1   
    31    16    43 1   
    32    17    44 1   
    33    18    19 2   
    34    18    45 1   
    35    19    20 1   
    36    19    22 1   
    37    20    21 2   
    38    22    23 ar  
    39    22    27 ar  
    40    23    24 ar  
    41    23    46 1   
    42    24    25 ar  
    43    24    47 1   
    44    25    26 ar  
    45    25    48 1   
    46    26    27 ar  
    47    26    49 1   
    48    27    50 1   
    49    28    29 1   
    50    28    51 1   
    51    28    52 1   
    52    28    53 1   
    53    29    30 1   
    54    29    31 1   
    55    29    54 1   
    56    30    55 1   
    57    30    56 1   
    58    30    57 1   
    59    31    32 2   
@<TRIPOS>SUBSTRUCTURE
     1 I57         1 TEMP              0 ****  ****    0 ROOT
