@<TRIPOS>MOLECULE
I57
   57    59     1     0     0
SMALL
No Charge or Current Charge


@<TRIPOS>ATOM
      1 O1A         -1.0180    -4.8380    -1.2400 o          1 I57      -0.683000
      2 O1B         -2.8620    -4.4430    -0.2100 o          1 I57      -0.683000
      3 C01         -1.8250    -4.0600    -0.7430 c          1 I57       0.725200
      4 C02         -1.5250    -2.5530    -0.7860 ce         1 I57       0.063900
      5 C03         -0.4020    -2.0330    -1.3510 c2         1 I57      -0.433200
      6 C04         -0.0980    -0.5390    -1.3750 c6         1 I57       0.125500
      7 N04          1.3490    -0.2540    -1.2280 na         1 I57       0.151800
      8 C05         -0.9340     0.2040    -0.2960 c6         1 I57       0.055700
      9 N05         -0.8250     1.6720    -0.4590 ns         1 I57      -0.499900
     10 C06         -2.4050    -0.2880    -0.4100 c6         1 I57       0.125300
     11 O06         -2.4850    -1.7240    -0.2110 os         1 I57      -0.314100
     12 C07         -3.3700     0.3650     0.6410 c3         1 I57       0.156300
     13 O07         -3.1010    -0.1600     1.9590 oh         1 I57      -0.719000
     14 C08         -4.8810     0.1710     0.2960 c3         1 I57       0.132300
     15 O08         -5.1830     0.7460    -0.9890 oh         1 I57      -0.625000
     16 C09         -5.8350     0.8240     1.3340 c3         1 I57       0.126600
     17 O09         -7.1980     0.7290     0.8790 oh         1 I57      -0.705000
     18 C41          2.1380    -0.6440    -0.1740 cc         1 I57      -0.151000
     19 C42          3.3670    -0.1310    -0.4830 cd         1 I57       0.225500
     20 N42          3.2910     0.5270    -1.6960 nd         1 I57      -0.375000
     21 N41          2.0690     0.4530    -2.1490 nc         1 I57      -0.232800
     22 C43          4.6100    -0.2370     0.3120 ca         1 I57      -0.076500
     23 C44          4.6180    -0.9280     1.5450 ca         1 I57      -0.097500
     24 C45          5.7990    -1.0290     2.3020 ca         1 I57      -0.117000
     25 C46          6.9860    -0.4410     1.8380 ca         1 I57      -0.125000
     26 C47          6.9920     0.2480     0.6150 ca         1 I57      -0.117000
     27 C48          5.8120     0.3500    -0.1430 ca         1 I57      -0.097500
     28 C54         -0.3890     4.8970     0.9250 c3         1 I57      -0.082100
     29 C52          0.0520     3.9640    -0.2270 c3         1 I57      -0.137700
     30 C53          1.4270     4.3670    -0.8090 c3         1 I57      -0.082100
     31 C51          0.0540     2.4880     0.2200 c          1 I57       0.608100
     32 O52          0.7750     2.0660     1.1130 o          1 I57      -0.589100
     33 H2           0.3430    -2.6870    -1.8090 ha         1 I57       0.224000
     34 H3          -0.4080    -0.1560    -2.3580 h1         1 I57       0.072700
     35 H4          -0.5600    -0.0740     0.7010 h1         1 I57       0.111700
     36 H5          -1.3810     2.1190    -1.1790 hn         1 I57       0.304500
     37 H6          -2.7650    -0.0600    -1.4230 h1         1 I57       0.054700
     38 H7          -3.1850     1.4480     0.6380 h1         1 I57       0.056700
     39 H8          -2.8870    -1.1150     1.8290 ho         1 I57       0.526000
     40 H9          -5.0920    -0.9080     0.2840 h1         1 I57       0.123700
     41 H10         -6.1490     0.9310    -0.9470 ho         1 I57       0.420000
     42 H11         -5.7240     0.3160     2.3010 h1         1 I57       0.021200
     43 H12         -5.5540     1.8770     1.4750 h1         1 I57       0.021200
     44 H13         -7.7690     1.0930     1.5960 ho         1 I57       0.491000
     45 H14          1.7750    -1.2160     0.6660 h4         1 I57       0.184000
     46 H15          3.7110    -1.3900     1.9260 ha         1 I57       0.122000
     47 H16          5.7920    -1.5630     3.2490 ha         1 I57       0.103000
     48 H17          7.8990    -0.5200     2.4240 ha         1 I57       0.100000
     49 H18          7.9110     0.7040     0.2530 ha         1 I57       0.103000
     50 H19          5.8390     0.8890    -1.0870 ha         1 I57       0.122000
     51 H20         -0.4450     5.9380     0.5810 hc         1 I57       0.040367
     52 H21         -1.3800     4.6080     1.2970 hc         1 I57       0.040367
     53 H22          0.3190     4.8500     1.7610 hc         1 I57       0.040367
     54 H23         -0.6840     4.0740    -1.0330 hc         1 I57       0.045700
     55 H24          2.2120     4.2960    -0.0460 hc         1 I57       0.040367
     56 H25          1.7000     3.7090    -1.6430 hc         1 I57       0.040367
     57 H26          1.4040     5.3980    -1.1820 hc         1 I57       0.040367
@<TRIPOS>BOND
     1     1     3 1   
     2     2     3 1   
     3     3     4 1   
     4     4     5 2   
     5     4    11 1   
     6     5     6 1   
     7     5    33 1   
     8     6     7 1   
     9     6     8 1   
    10     6    34 1   
    11     7    18 1   
    12     7    21 1   
    13     8     9 1   
    14     8    10 1   
    15     8    35 1   
    16     9    31 1   
    17     9    36 1   
    18    10    11 1   
    19    10    12 1   
    20    10    37 1   
    21    12    13 1   
    22    12    14 1   
    23    12    38 1   
    24    13    39 1   
    25    14    15 1   
    26    14    16 1   
    27    14    40 1   
    28    15    41 1   
    29    16    17 1   
    30    16    42 1   
    31    16    43 1   
    32    17    44 1   
    33    18    19 2   
    34    18    45 1   
    35    19    20 1   
    36    19    22 1   
    37    20    21 2   
    38    22    23 ar  
    39    22    27 ar  
    40    23    24 ar  
    41    23    46 1   
    42    24    25 ar  
    43    24    47 1   
    44    25    26 ar  
    45    25    48 1   
    46    26    27 ar  
    47    26    49 1   
    48    27    50 1   
    49    28    29 1   
    50    28    51 1   
    51    28    52 1   
    52    28    53 1   
    53    29    30 1   
    54    29    31 1   
    55    29    54 1   
    56    30    55 1   
    57    30    56 1   
    58    30    57 1   
    59    31    32 2   
@<TRIPOS>SUBSTRUCTURE
     1 I57         1 TEMP              0 ****  ****    0 ROOT
