@<TRIPOS>MOLECULE
I58
   29    28     1     0     0
SMALL
No Charge or Current Charge


@<TRIPOS>ATOM
      1 N          127.4530   118.6880    91.3150 n8         1 I58      -0.874800
      2 C          127.5310   118.5070    88.6820 c          1 I58       0.938600
      3 O          128.3930   118.9550    87.9300 o          1 I58      -0.828800
      4 OXT        126.3360   118.5290    88.3980 o          1 I58      -0.828800
      5 CA         127.9750   117.9480    90.1080 c3         1 I58       0.021500
      6 CB         127.6730   116.4250    90.2320 c3         1 I58      -0.136400
      7 CG         128.6450   115.6070    91.1260 c3         1 I58       0.169600
      8 F          128.3970   114.2890    90.9370 f          1 I58      -0.281300
      9 CD         128.6090   115.9030    92.6460 c3         1 I58      -0.135400
     10 CE         127.2420   115.6410    93.3150 c3         1 I58       0.237800
     11 NZ         127.3190   115.8850    94.7640 nu         1 I58      -0.895200
     12 CX         127.7380   114.9900    95.7180 c2         1 I58       0.619200
     13 NX         127.8290   115.4260    96.9050 n2         1 I58      -0.824100
     14 CT         128.0340   113.5630    95.3170 c3         1 I58      -0.133400
     15 H          126.4280   118.6760    91.2970 hn         1 I58       0.317800
     16 H2         127.7080   118.1790    92.1650 hn         1 I58       0.317800
     17 HA         129.0680   118.0560    90.1310 h1         1 I58       0.039700
     18 HB2        127.7400   115.9950    89.2240 hc         1 I58       0.063700
     19 HB3        126.6340   116.2680    90.5460 hc         1 I58       0.063700
     20 HG         129.6670   115.7940    90.7720 h1         1 I58       0.045700
     21 HD2        128.9190   116.9370    92.8290 hc         1 I58       0.045700
     22 HD3        129.3680   115.2760    93.1270 hc         1 I58       0.045700
     23 HE2        126.9050   114.6170    93.1070 h1         1 I58       0.039200
     24 HE3        126.4980   116.3220    92.8800 h1         1 I58       0.039200
     25 HZ         127.0150   116.7950    95.0940 hn         1 I58       0.417800
     26 HNX        127.5790   116.4200    96.9050 hn         1 I58       0.369400
     27 HT1        128.8580   113.5100    94.5980 hc         1 I58       0.048700
     28 HT2        128.3210   112.9610    96.1860 hc         1 I58       0.048700
     29 HT3        127.1540   113.0880    94.8680 hc         1 I58       0.048700
@<TRIPOS>BOND
     1     1     5 1   
     2     1    15 1   
     3     1    16 1   
     4     2     3 1   
     5     2     4 1   
     6     2     5 1   
     7     5     6 1   
     8     5    17 1   
     9     6     7 1   
    10     6    18 1   
    11     6    19 1   
    12     7     8 1   
    13     7     9 1   
    14     7    20 1   
    15     9    10 1   
    16     9    21 1   
    17     9    22 1   
    18    10    11 1   
    19    10    23 1   
    20    10    24 1   
    21    11    12 1   
    22    11    25 1   
    23    12    13 2   
    24    12    14 1   
    25    13    26 1   
    26    14    27 1   
    27    14    28 1   
    28    14    29 1   
@<TRIPOS>SUBSTRUCTURE
     1 I58         1 TEMP              0 ****  ****    0 ROOT
