@<TRIPOS>MOLECULE
I58
   29    28     1     0     0
SMALL
bcc


@<TRIPOS>ATOM
      1 N          129.7540   117.6660    91.8320 n8         1 I58      -0.874800
      2 C          128.0990   119.1640    90.7760 c          1 I58       0.938600
      3 O          127.5140   119.4680    89.7170 o          1 I58      -0.828800
      4 OXT        128.2080   119.8620    91.8020 o          1 I58      -0.828800
      5 CA         128.7070   117.7370    90.8280 c3         1 I58       0.021500
      6 CB         127.5290   116.7520    90.9810 c3         1 I58      -0.136400
      7 CG         127.8870   115.2800    90.8210 c3         1 I58       0.169600
      8 F          126.7390   114.5910    90.3800 f          1 I58      -0.281300
      9 CD         128.4170   114.5420    92.0450 c3         1 I58      -0.135400
     10 CE         127.3670   114.0390    93.0390 c3         1 I58       0.237800
     11 NZ         126.4360   115.0170    93.5550 nu         1 I58      -0.895200
     12 CX         126.7280   115.9810    94.4740 c2         1 I58       0.619200
     13 NX         126.0080   117.0160    94.7070 n2         1 I58      -0.824100
     14 CT         127.9710   115.7750    95.2900 c3         1 I58      -0.133400
     15 H          129.3640   117.8520    92.7470 hn         1 I58       0.317800
     16 H2         130.1700   116.7460    91.8640 hn         1 I58       0.317800
     17 HA         129.1740   117.5370    89.8560 h1         1 I58       0.039700
     18 HB2        126.8110   116.9890    90.1920 hc         1 I58       0.063700
     19 HB3        127.0310   116.9440    91.9340 hc         1 I58       0.063700
     20 HG         128.6180   115.1920    90.0100 h1         1 I58       0.045700
     21 HD2        129.1330   115.1860    92.5560 hc         1 I58       0.045700
     22 HD3        128.9830   113.6650    91.7190 hc         1 I58       0.045700
     23 HE2        127.8910   113.5640    93.8700 h1         1 I58       0.039200
     24 HE3        126.7750   113.2500    92.5760 h1         1 I58       0.039200
     25 HZ         125.6410   115.2050    92.9630 hn         1 I58       0.417800
     26 HNX        125.2040   117.0500    94.0830 hn         1 I58       0.369400
     27 HT1        128.8690   115.8310    94.6740 hc         1 I58       0.048700
     28 HT2        128.0340   116.5480    96.0510 hc         1 I58       0.048700
     29 HT3        127.9730   114.8010    95.7810 hc         1 I58       0.048700
@<TRIPOS>BOND
     1     1     5 1   
     2     1    15 1   
     3     1    16 1   
     4     2     3 1   
     5     2     4 1   
     6     2     5 1   
     7     5     6 1   
     8     5    17 1   
     9     6     7 1   
    10     6    18 1   
    11     6    19 1   
    12     7     8 1   
    13     7     9 1   
    14     7    20 1   
    15     9    10 1   
    16     9    21 1   
    17     9    22 1   
    18    10    11 1   
    19    10    23 1   
    20    10    24 1   
    21    11    12 1   
    22    11    25 1   
    23    12    13 2   
    24    12    14 1   
    25    13    26 1   
    26    14    27 1   
    27    14    28 1   
    28    14    29 1   
@<TRIPOS>SUBSTRUCTURE
     1 I58         1 TEMP              0 ****  ****    0 ROOT
