@<TRIPOS>MOLECULE
I59
   25    26     1     0     0
SMALL
bcc


@<TRIPOS>ATOM
      1 C1          -1.8710     0.0800     3.3650 ca         1 I59      -0.141000
      2 C2          -0.5620    -0.2610     3.5690 ca         1 I59      -0.165000
      3 C3           0.3840    -0.1770     2.5200 ca         1 I59      -0.015000
      4 C4          -0.0310     0.2770     1.2380 ca         1 I59      -0.035000
      5 C5          -1.3990     0.5990     1.0560 ca         1 I59      -0.037000
      6 C6          -2.2920     0.5100     2.0910 ca         1 I59      -0.196000
      7 C7           1.7350    -0.5450     2.7280 ca         1 I59      -0.221000
      8 C8           2.6280    -0.4560     1.6980 ca         1 I59      -0.099000
      9 C9           2.2230     0.0160     0.4330 ca         1 I59      -0.190000
     10 C10          0.9240     0.3850     0.1810 ca         1 I59       0.082700
     11 C11          0.5140     0.9120    -1.1590 c3         1 I59       0.008200
     12 O12          1.6230     1.2240    -1.9710 oh         1 I59      -0.690800
     13 P13         -0.5520    -0.3290    -2.1670 p5         1 I59       1.086700
     14 O15         -0.6590    -1.6260    -1.3770 o          1 I59      -0.882167
     15 O16         -1.8810     0.3740    -2.4440 o          1 I59      -0.882167
     16 O17          0.3720    -0.4260    -3.4110 o          1 I59      -0.882167
     17 H1          -2.5860     0.0130     4.1760 ha         1 I59       0.085000
     18 H2          -0.2300    -0.6030     4.5430 ha         1 I59       0.089000
     19 H5          -1.7560     0.9020     0.0810 ha         1 I59       0.182000
     20 H6          -3.3330     0.7610     1.9280 ha         1 I59       0.106000
     21 H7           2.0450    -0.8950     3.7050 ha         1 I59       0.086000
     22 H8           3.6630    -0.7380     1.8520 ha         1 I59       0.083000
     23 H9           2.9590     0.1020    -0.3540 ha         1 I59       0.138000
     24 H11         -0.0890     1.8190    -0.9980 h1         1 I59       0.031700
     25 H12          1.4440     0.6430    -2.7580 ho         1 I59       0.458000
@<TRIPOS>BOND
     1     1     2 ar  
     2     1     6 ar  
     3     1    17 1   
     4     2     3 ar  
     5     2    18 1   
     6     3     4 ar  
     7     3     7 ar  
     8     4     5 ar  
     9     4    10 ar  
    10     5     6 ar  
    11     5    19 1   
    12     6    20 1   
    13     7     8 ar  
    14     7    21 1   
    15     8     9 ar  
    16     8    22 1   
    17     9    10 ar  
    18     9    23 1   
    19    10    11 1   
    20    11    12 1   
    21    11    13 1   
    22    11    24 1   
    23    12    25 1   
    24    13    14 1   
    25    13    15 1   
    26    13    16 1   
@<TRIPOS>SUBSTRUCTURE
     1 I59         1 TEMP              0 ****  ****    0 ROOT
