@<TRIPOS>MOLECULE
I59
   25    26     1     0     0
SMALL
No Charge or Current Charge


@<TRIPOS>ATOM
      1 C1          -1.8800     0.2020     3.4630 ca         1 I59      -0.123000
      2 C2          -0.5520    -0.2110     3.6270 ca         1 I59      -0.147000
      3 C3           0.3460    -0.1690     2.5440 ca         1 I59      -0.015000
      4 C4          -0.0770     0.2980     1.2710 ca         1 I59      -0.035000
      5 C5          -1.4280     0.7030     1.1230 ca         1 I59      -0.019000
      6 C6          -2.3170     0.6560     2.2120 ca         1 I59      -0.178000
      7 C7           1.6690    -0.6010     2.7410 ca         1 I59      -0.203000
      8 C8           2.5800    -0.5790     1.6810 ca         1 I59      -0.081000
      9 C9           2.1770    -0.1160     0.4210 ca         1 I59      -0.172000
     10 C10          0.8570     0.3390     0.1920 ca         1 I59       0.082700
     11 C11          0.4830     0.8620    -1.2120 c3         1 I59      -0.126400
     12 O12          1.6080     1.5160    -1.8840 oh         1 I59      -0.753000
     13 P13         -0.3510    -0.4580    -2.2920 p5         1 I59       1.244500
     14 O15         -0.0580    -1.8250    -1.7720 o          1 I59      -0.882167
     15 O16         -1.8220    -0.2140    -2.3270 o          1 I59      -0.882167
     16 O17          0.2340    -0.2910    -3.6570 o          1 I59      -0.882167
     17 H1          -2.5700     0.1670     4.3030 ha         1 I59       0.067000
     18 H2          -0.2200    -0.5680     4.5990 ha         1 I59       0.071000
     19 H5          -1.8170     1.0490     0.1710 ha         1 I59       0.164000
     20 H6          -3.3500     0.9700     2.0810 ha         1 I59       0.088000
     21 H7           1.9900    -0.9590     3.7160 ha         1 I59       0.068000
     22 H8           3.6020    -0.9200     1.8340 ha         1 I59       0.065000
     23 H9           2.9040    -0.1110    -0.3870 ha         1 I59       0.120000
     24 H11         -0.2950     1.6230    -1.1000 h1         1 I59       0.031700
     25 H12          1.5610     1.1970    -2.8230 ho         1 I59       0.497000
@<TRIPOS>BOND
     1     1     2 ar  
     2     1     6 ar  
     3     1    17 1   
     4     2     3 ar  
     5     2    18 1   
     6     3     4 ar  
     7     3     7 ar  
     8     4     5 ar  
     9     4    10 ar  
    10     5     6 ar  
    11     5    19 1   
    12     6    20 1   
    13     7     8 ar  
    14     7    21 1   
    15     8     9 ar  
    16     8    22 1   
    17     9    10 ar  
    18     9    23 1   
    19    10    11 1   
    20    11    12 1   
    21    11    13 1   
    22    11    24 1   
    23    12    25 1   
    24    13    14 1   
    25    13    15 1   
    26    13    16 1   
@<TRIPOS>SUBSTRUCTURE
     1 I59         1 TEMP              0 ****  ****    0 ROOT
