@<TRIPOS>MOLECULE
I5B
   47    50     1     0     0
SMALL
No Charge or Current Charge


@<TRIPOS>ATOM
      1 C1          15.0310   -25.7170    16.9630 ca         1 I5B       0.125100
      2 C2          15.7440   -26.6430    16.1330 cp         1 I5B      -0.032000
      3 C3          17.1420   -26.7940    16.3410 ca         1 I5B      -0.083000
      4 C11         12.8360   -24.7390    17.5550 c3         1 I5B       0.144900
      5 C12         15.0690   -27.4560    15.0710 cp         1 I5B       0.011000
      6 C13         14.1600   -26.8910    14.1460 ca         1 I5B      -0.145500
      7 C14         13.5670   -27.6960    13.1600 ca         1 I5B       0.329900
      8 C16         14.7000   -29.5710    13.9060 ca         1 I5B       0.329900
      9 C17         15.3370   -28.8360    14.9200 ca         1 I5B      -0.145500
     10 C21         18.4770   -21.7130    21.7000 c6         1 I5B       0.100500
     11 C22         19.4760   -21.3290    22.8240 c6         1 I5B       0.146300
     12 C24         21.1280   -22.8860    22.0340 c6         1 I5B       0.146300
     13 C25         20.2120   -23.3860    20.8820 c6         1 I5B       0.100500
     14 C26         21.8390   -20.9760    23.4120 c3         1 I5B       0.153100
     15 C4          17.7680   -26.0280    17.3300 ca         1 I5B      -0.088200
     16 C5          17.0900   -25.1440    18.1060 ca         1 I5B      -0.143900
     17 C6          15.7040   -24.9600    17.9560 ca         1 I5B      -0.128000
     18 N7          19.0950   -26.0090    17.6980 na         1 I5B      -0.042400
     19 N8          19.2960   -25.0910    18.7380 nc         1 I5B      -0.495100
     20 C9          18.0820   -24.5530    19.0070 cd         1 I5B       0.289900
     21 O10         13.6630   -25.6200    16.7750 os         1 I5B      -0.338100
     22 N15         13.8260   -29.0180    13.0340 nb         1 I5B      -0.663000
     23 O19         16.6220   -23.0110    20.1520 o          1 I5B      -0.606100
     24 N20         18.7690   -22.9690    20.9280 n          1 I5B      -0.401800
     25 N23         20.8860   -21.4700    22.3940 n3         1 I5B      -0.718600
     26 H1          17.7210   -27.4850    15.7320 ha         1 I5B       0.127000
     27 H2          11.7890   -24.8220    17.2380 h1         1 I5B       0.044033
     28 H3          12.8880   -24.9960    18.6210 h1         1 I5B       0.044033
     29 H4          13.1480   -23.6950    17.4260 h1         1 I5B       0.044033
     30 H5          13.9200   -25.8330    14.1820 ha         1 I5B       0.126000
     31 H6          12.8650   -27.2690    12.4440 h4         1 I5B       0.018100
     32 H7          14.8960   -30.6360    13.7870 h4         1 I5B       0.018100
     33 H8          16.0250   -29.3420    15.5900 ha         1 I5B       0.126000
     34 H9          18.4420   -20.8820    20.9820 h1         1 I5B       0.062700
     35 H10         17.4780   -21.7810    22.1530 h1         1 I5B       0.062700
     36 H11         19.2690   -20.2950    23.1350 h1         1 I5B       0.041700
     37 H12         19.2830   -21.9690    23.6980 h1         1 I5B       0.041700
     38 H13         20.9590   -23.5270    22.9130 h1         1 I5B       0.041700
     39 H14         22.1760   -23.0340    21.7330 h1         1 I5B       0.041700
     40 H15         20.2760   -24.4820    20.9040 h1         1 I5B       0.062700
     41 H16         20.6400   -23.0410    19.9310 h1         1 I5B       0.062700
     42 H17         21.6530   -19.9170    23.6360 h1         1 I5B       0.031700
     43 H18         21.7480   -21.5460    24.3470 h1         1 I5B       0.031700
     44 H19         22.8730   -21.0680    23.0530 h1         1 I5B       0.031700
     45 H20         15.1690   -24.2610    18.5900 ha         1 I5B       0.146000
     46 H21         19.8540   -26.5600    17.2980 hn         1 I5B       0.380000
     47 C18         17.7560   -23.4750    20.0470 c          1 I5B       0.565800
@<TRIPOS>BOND
     1     1     2 ar  
     2     1    17 ar  
     3     1    21 1   
     4     2     3 ar  
     5     2     5 1   
     6     3    15 ar  
     7     3    26 1   
     8     4    21 1   
     9     4    27 1   
    10     4    28 1   
    11     4    29 1   
    12     5     6 ar  
    13     5     9 ar  
    14     6     7 ar  
    15     6    30 1   
    16     7    22 ar  
    17     7    31 1   
    18     8     9 ar  
    19     8    22 ar  
    20     8    32 1   
    21     9    33 1   
    22    10    11 1   
    23    10    24 1   
    24    10    34 1   
    25    10    35 1   
    26    11    25 1   
    27    11    36 1   
    28    11    37 1   
    29    12    13 1   
    30    12    25 1   
    31    12    38 1   
    32    12    39 1   
    33    13    24 1   
    34    13    40 1   
    35    13    41 1   
    36    14    25 1   
    37    14    42 1   
    38    14    43 1   
    39    14    44 1   
    40    15    16 ar  
    41    15    18 1   
    42    16    17 ar  
    43    16    20 1   
    44    17    45 1   
    45    18    19 1   
    46    18    46 1   
    47    19    20 2   
    48    20    47 1   
    49    23    47 2   
    50    24    47 1   
@<TRIPOS>SUBSTRUCTURE
     1 I5B         1 TEMP              0 ****  ****    0 ROOT
