@<TRIPOS>MOLECULE
I5B
   47    50     1     0     0
SMALL
bcc


@<TRIPOS>ATOM
      1 C1          15.1120   -25.5820    17.0120 ca         1 I5B       0.125100
      2 C2          15.8480   -26.6450    16.4030 cp         1 I5B      -0.032000
      3 C3          17.1340   -26.9240    16.8090 ca         1 I5B      -0.101000
      4 C11         13.0600   -24.3970    17.0970 c3         1 I5B       0.121700
      5 C12         15.2410   -27.4720    15.3400 cp         1 I5B       0.011000
      6 C13         14.6950   -26.9200    14.1830 ca         1 I5B      -0.228800
      7 C14         14.1930   -27.7650    13.2070 ca         1 I5B       0.395200
      8 C16         14.7120   -29.6170    14.4070 ca         1 I5B       0.395200
      9 C17         15.2430   -28.8600    15.4410 ca         1 I5B      -0.228800
     10 C21         18.3370   -21.6640    21.7890 c6         1 I5B       0.100500
     11 C22         19.4190   -21.8270    22.8440 c6         1 I5B       0.146300
     12 C24         20.9540   -22.6050    21.1850 c6         1 I5B       0.146300
     13 C25         19.8890   -22.4320    20.1180 c6         1 I5B       0.100500
     14 C26         21.7720   -21.7660    23.2740 c3         1 I5B       0.153100
     15 C4          17.6930   -26.1280    17.8100 ca         1 I5B      -0.088200
     16 C5          16.9860   -25.0770    18.4030 ca         1 I5B      -0.143900
     17 C6          15.6690   -24.8030    18.0030 ca         1 I5B      -0.146000
     18 N7          18.9150   -26.1420    18.4020 na         1 I5B       0.007900
     19 N8          19.0420   -25.1950    19.3120 nc         1 I5B      -0.495100
     20 C9          17.9080   -24.5240    19.3370 cd         1 I5B       0.289900
     21 O10         13.8500   -25.4390    16.5640 os         1 I5B      -0.314900
     22 N15         14.1920   -29.0910    13.3060 nb         1 I5B      -0.663000
     23 O19         16.4460   -23.3700    20.7200 o          1 I5B      -0.606100
     24 N20         18.5700   -22.6000    20.7030 n          1 I5B      -0.468800
     25 N23         20.7400   -21.6670    22.2690 n3         1 I5B      -0.718600
     26 H1          17.6970   -27.7260    16.3480 ha         1 I5B       0.145000
     27 H2          12.1000   -24.4470    16.5890 h1         1 I5B       0.044033
     28 H3          12.8980   -24.5170    18.1720 h1         1 I5B       0.044033
     29 H4          13.5050   -23.4140    16.9160 h1         1 I5B       0.044033
     30 H5          14.6750   -25.8510    14.0240 ha         1 I5B       0.144000
     31 H6          13.7730   -27.3470    12.2990 h4         1 I5B       0.018100
     32 H7          14.7070   -30.6990    14.4800 h4         1 I5B       0.018100
     33 H8          15.6430   -29.3520    16.3190 ha         1 I5B       0.144000
     34 H9          18.3530   -20.6430    21.3950 h1         1 I5B       0.062700
     35 H10         17.3580   -21.8380    22.2270 h1         1 I5B       0.062700
     36 H11         19.2720   -21.0670    23.6160 h1         1 I5B       0.041700
     37 H12         19.3000   -22.8110    23.3310 h1         1 I5B       0.041700
     38 H13         20.9450   -23.6520    21.5340 h1         1 I5B       0.041700
     39 H14         21.9350   -22.4180    20.7420 h1         1 I5B       0.041700
     40 H15         20.0500   -23.1310    19.3060 h1         1 I5B       0.062700
     41 H16         19.9510   -21.4190    19.7070 h1         1 I5B       0.062700
     42 H17         21.6180   -21.0070    24.0430 h1         1 I5B       0.031700
     43 H18         21.8020   -22.7470    23.7720 h1         1 I5B       0.031700
     44 H19         22.7510   -21.5910    22.8240 h1         1 I5B       0.031700
     45 H20         15.1160   -24.0060    18.4770 ha         1 I5B       0.164000
     46 H21         19.6750   -26.7830    18.2390 hn         1 I5B       0.329700
     47 C18         17.5980   -23.4440    20.3050 c          1 I5B       0.632800
@<TRIPOS>BOND
     1     1     2 ar  
     2     1    17 ar  
     3     1    21 1   
     4     2     3 ar  
     5     2     5 1   
     6     3    15 ar  
     7     3    26 1   
     8     4    21 1   
     9     4    27 1   
    10     4    28 1   
    11     4    29 1   
    12     5     6 ar  
    13     5     9 ar  
    14     6     7 ar  
    15     6    30 1   
    16     7    22 ar  
    17     7    31 1   
    18     8     9 ar  
    19     8    22 ar  
    20     8    32 1   
    21     9    33 1   
    22    10    11 1   
    23    10    24 1   
    24    10    34 1   
    25    10    35 1   
    26    11    25 1   
    27    11    36 1   
    28    11    37 1   
    29    12    13 1   
    30    12    25 1   
    31    12    38 1   
    32    12    39 1   
    33    13    24 1   
    34    13    40 1   
    35    13    41 1   
    36    14    25 1   
    37    14    42 1   
    38    14    43 1   
    39    14    44 1   
    40    15    16 ar  
    41    15    18 1   
    42    16    17 ar  
    43    16    20 1   
    44    17    45 1   
    45    18    19 1   
    46    18    46 1   
    47    19    20 2   
    48    20    47 1   
    49    23    47 2   
    50    24    47 1   
@<TRIPOS>SUBSTRUCTURE
     1 I5B         1 TEMP              0 ****  ****    0 ROOT
