@<TRIPOS>MOLECULE
I5F
   18    20     1     0     0
SMALL
No Charge or Current Charge


@<TRIPOS>ATOM
      1 C4           1.9080     3.8580    10.5440 ca         1 I5F      -0.045200
      2 C5           1.1840     4.5650    11.5000 ca         1 I5F      -0.126000
      3 C6           1.7610     4.8870    12.7380 ca         1 I5F      -0.168000
      4 C7          -0.0680     4.2140     9.4470 cc         1 I5F       0.432800
      5 C8           1.5770     3.6830     8.1110 cc         1 I5F       0.398400
      6 N1          -0.4450     4.5810     8.2360 nd         1 I5F      -0.318000
      7 N2           0.5710     4.1690     7.3780 nd         1 I5F      -0.348000
      8 C3           3.2270     3.4420    10.7810 ca         1 I5F      -0.054000
      9 N3           1.1540     3.6390     9.4140 na         1 I5F      -0.253800
     10 C1           3.0840     4.4760    12.9970 ca         1 I5F       0.152100
     11 C2           3.8130     3.7590    12.0240 ca         1 I5F      -0.127000
     12 S1          -0.4720     5.0310    10.9650 ss         1 I5F       0.033700
     13 H1           1.1920     5.4460    13.4780 ha         1 I5F       0.131000
     14 H2           2.5590     3.3760     7.7760 h5         1 I5F       0.072100
     15 H3           3.7840     2.8840    10.0320 ha         1 I5F       0.132000
     16 H4           3.0260     5.2690    14.7390 ho         1 I5F       0.472000
     17 H5           4.8330     3.4480    12.2350 ha         1 I5F       0.140000
     18 O1           3.6710     4.7730    14.1910 oh         1 I5F      -0.525100
@<TRIPOS>BOND
     1     1     2 ar  
     2     1     8 ar  
     3     1     9 1   
     4     2     3 ar  
     5     2    12 1   
     6     3    10 ar  
     7     3    13 1   
     8     4     6 2   
     9     4     9 1   
    10     4    12 1   
    11     5     7 2   
    12     5     9 1   
    13     5    14 1   
    14     6     7 1   
    15     8    11 ar  
    16     8    15 1   
    17    10    11 ar  
    18    10    18 1   
    19    11    17 1   
    20    16    18 1   
@<TRIPOS>SUBSTRUCTURE
     1 I5F         1 TEMP              0 ****  ****    0 ROOT
