@<TRIPOS>MOLECULE
I5F
   18    20     1     0     0
SMALL
bcc


@<TRIPOS>ATOM
      1 C4           2.0260     4.0650    10.5120 ca         1 I5F      -0.045200
      2 C5           1.2570     4.6830    11.4970 ca         1 I5F       0.000900
      3 C6           1.7520     4.8770    12.7750 ca         1 I5F      -0.186000
      4 C7           0.0650     4.5090     9.3560 cc         1 I5F       0.432800
      5 C8           1.4560     3.5360     8.0460 cc         1 I5F       0.398400
      6 N1          -0.5290     4.3960     8.2070 nd         1 I5F      -0.318000
      7 N2           0.3620     3.7780     7.3830 nd         1 I5F      -0.348000
      8 C3           3.3080     3.6260    10.7890 ca         1 I5F      -0.072000
      9 N3           1.3160     3.9860     9.3180 na         1 I5F      -0.253800
     10 C1           3.0440     4.4370    13.0540 ca         1 I5F       0.152100
     11 C2           3.8110     3.8140    12.0620 ca         1 I5F      -0.145000
     12 S1          -0.3370     5.1530    10.9180 ss         1 I5F      -0.093200
     13 H1           1.1500     5.3600    13.5360 ha         1 I5F       0.149000
     14 H2           2.3440     3.0560     7.6670 h5         1 I5F       0.072100
     15 H3           3.9080     3.1450    10.0280 ha         1 I5F       0.150000
     16 H4           3.0060     5.0190    14.8760 ho         1 I5F       0.433000
     17 H5           4.8120     3.4780    12.3000 ha         1 I5F       0.158000
     18 O1           3.6090     4.5830    14.2630 oh         1 I5F      -0.486100
@<TRIPOS>BOND
     1     1     2 ar  
     2     1     8 ar  
     3     1     9 1   
     4     2     3 ar  
     5     2    12 1   
     6     3    10 ar  
     7     3    13 1   
     8     4     6 2   
     9     4     9 1   
    10     4    12 1   
    11     5     7 2   
    12     5     9 1   
    13     5    14 1   
    14     6     7 1   
    15     8    11 ar  
    16     8    15 1   
    17    10    11 ar  
    18    10    18 1   
    19    11    17 1   
    20    16    18 1   
@<TRIPOS>SUBSTRUCTURE
     1 I5F         1 TEMP              0 ****  ****    0 ROOT
