@<TRIPOS>MOLECULE
I5G
   52    55     1     0     0
SMALL
No Charge or Current Charge


@<TRIPOS>ATOM
      1 O1         -75.8470   -12.9490    11.8400 o          1 I5G      -0.596100
      2 C20        -74.9150   -12.1590    11.9140 c          1 I5G       0.615700
      3 C21        -75.0110   -10.7520    11.3450 ca         1 I5G      -0.156600
      4 C23        -73.9500    -9.8010    11.3670 ca         1 I5G       0.166100
      5 O2         -72.7310   -10.1370    11.9320 os         1 I5G      -0.367100
      6 C22        -71.6080    -9.2370    11.9890 c3         1 I5G       0.148900
      7 C6         -74.1450    -8.5160    10.8080 ca         1 I5G      -0.187000
      8 C2         -75.3780    -8.1570    10.2240 ca         1 I5G      -0.030000
      9 C7         -76.2400   -10.3760    10.7530 ca         1 I5G      -0.014000
     10 C4         -76.4210    -9.0980    10.2020 ca         1 I5G      -0.054000
     11 C5         -77.6460    -8.7300     9.6170 ca         1 I5G      -0.124000
     12 C3         -77.7890    -7.4420     9.0750 ca         1 I5G       0.329900
     13 N1         -76.7970    -6.5240     9.0870 nb         1 I5G      -0.649000
     14 C1         -75.6180    -6.8790     9.6510 ca         1 I5G       0.457000
     15 Cl1        -74.3860    -5.6170     9.6190 cl         1 I5G      -0.172000
     16 N4         -73.7410   -12.5250    12.5210 ns         1 I5G      -0.503900
     17 C19        -73.4540   -13.8370    13.1160 c3         1 I5G       0.135000
     18 C8         -72.4290   -13.7550    14.2880 c5         1 I5G       0.177500
     19 N2         -72.8370   -12.7830    15.3550 n7         1 I5G      -0.881400
     20 C10        -71.7670   -11.7520    15.4050 c5         1 I5G       0.128800
     21 C11        -70.4820   -12.5770    15.1340 c5         1 I5G       0.163300
     22 O3         -70.2160   -13.4780    16.2080 oh         1 I5G      -0.643000
     23 C9         -70.9800   -13.3240    13.8730 c5         1 I5G      -0.094400
     24 C12        -73.0550   -14.8630    12.0520 ca         1 I5G      -0.057300
     25 C14        -73.4820   -16.1990    12.1780 ca         1 I5G      -0.103000
     26 C15        -73.1210   -17.1590    11.2160 ca         1 I5G      -0.060000
     27 C17        -72.3270   -16.7940    10.1120 ca         1 I5G      -0.010000
     28 C16        -71.9680   -17.7880     9.1380 cg         1 I5G       0.326000
     29 N3         -71.6840   -18.6060     8.3540 n1         1 I5G      -0.438000
     30 C18        -71.8950   -15.4580     9.9810 ca         1 I5G       0.149000
     31 Cl2        -70.8950   -14.9410     8.6190 cl         1 I5G      -0.175000
     32 C13        -72.2570   -14.5020    10.9450 ca         1 I5G      -0.098000
     33 H1         -70.7560    -9.7240    12.4790 h1         1 I5G       0.050033
     34 H2         -71.2930    -8.9390    10.9810 h1         1 I5G       0.050033
     35 H3         -71.8580    -8.3360    12.5640 h1         1 I5G       0.050033
     36 H4         -73.3410    -7.7880    10.8220 ha         1 I5G       0.137000
     37 H5         -77.0690   -11.0810    10.7210 ha         1 I5G       0.150000
     38 H6         -78.4810    -9.4240     9.5760 ha         1 I5G       0.134000
     39 H7         -78.7290    -7.1350     8.6170 h4         1 I5G       0.031100
     40 H8         -73.0240   -11.8100    12.5550 hn         1 I5G       0.336500
     41 H9         -74.3920   -14.1900    13.5670 h1         1 I5G       0.083700
     42 H10        -72.3840   -14.7610    14.7310 h1         1 I5G       0.085700
     43 H11        -73.7360   -12.3440    15.1130 hn         1 I5G       0.431000
     44 H13        -71.9180   -10.9950    14.6230 h1         1 I5G       0.037700
     45 H14        -71.7440   -11.2350    16.3740 h1         1 I5G       0.037700
     46 H15        -69.6090   -11.9430    14.9260 h1         1 I5G       0.039700
     47 H16        -71.1160   -13.7160    16.5270 ho         1 I5G       0.444000
     48 H17        -70.3490   -14.1810    13.6120 hc         1 I5G       0.062700
     49 H18        -70.9820   -12.6530    13.0070 hc         1 I5G       0.062700
     50 H19        -74.0960   -16.4990    13.0250 ha         1 I5G       0.126000
     51 H20        -73.4620   -18.1860    11.3310 ha         1 I5G       0.132000
     52 H21        -71.9120   -13.4790    10.8250 ha         1 I5G       0.135000
@<TRIPOS>BOND
     1     1     2 2   
     2     2     3 1   
     3     2    16 1   
     4     3     4 ar  
     5     3     9 ar  
     6     4     5 1   
     7     4     7 ar  
     8     5     6 1   
     9     6    33 1   
    10     6    34 1   
    11     6    35 1   
    12     7     8 ar  
    13     7    36 1   
    14     8    10 ar  
    15     8    14 ar  
    16     9    10 ar  
    17     9    37 1   
    18    10    11 ar  
    19    11    12 ar  
    20    11    38 1   
    21    12    13 ar  
    22    12    39 1   
    23    13    14 ar  
    24    14    15 1   
    25    16    17 1   
    26    16    40 1   
    27    17    18 1   
    28    17    24 1   
    29    17    41 1   
    30    18    19 1   
    31    18    23 1   
    32    18    42 1   
    33    19    20 1   
    34    19    43 1   
    35    20    21 1   
    36    20    44 1   
    37    20    45 1   
    38    21    22 1   
    39    21    23 1   
    40    21    46 1   
    41    22    47 1   
    42    23    48 1   
    43    23    49 1   
    44    24    25 ar  
    45    24    32 ar  
    46    25    26 ar  
    47    25    50 1   
    48    26    27 ar  
    49    26    51 1   
    50    27    28 1   
    51    27    30 ar  
    52    28    29 3   
    53    30    31 1   
    54    30    32 ar  
    55    32    52 1   
@<TRIPOS>SUBSTRUCTURE
     1 I5G         1 TEMP              0 ****  ****    0 ROOT
