@<TRIPOS>MOLECULE
I5G
   52    55     1     0     0
SMALL
bcc


@<TRIPOS>ATOM
      1 O1         -75.5790   -13.0120    11.3570 o          1 I5G      -0.596100
      2 C20        -74.7650   -12.1740    11.7130 c          1 I5G       0.682700
      3 C21        -74.8770   -10.7580    11.2120 ca         1 I5G      -0.156600
      4 C23        -73.8250    -9.7910    11.2050 ca         1 I5G       0.166100
      5 O2         -72.6370   -10.1960    11.6740 os         1 I5G      -0.343900
      6 C22        -71.5530    -9.2830    11.7240 c3         1 I5G       0.125700
      7 C6         -74.0470    -8.5240    10.7190 ca         1 I5G      -0.205000
      8 C2         -75.3120    -8.1640    10.2200 ca         1 I5G      -0.095300
      9 C7         -76.0990   -10.4040    10.7070 ca         1 I5G      -0.032000
     10 C4         -76.3580    -9.1120    10.2060 ca         1 I5G      -0.054000
     11 C5         -77.6170    -8.7380     9.6920 ca         1 I5G      -0.207300
     12 C3         -77.7880    -7.4680     9.2260 ca         1 I5G       0.395200
     13 N1         -76.7980    -6.5490     9.2380 nb         1 I5G      -0.649000
     14 C1         -75.6430    -6.8830     9.7040 ca         1 I5G       0.522300
     15 CL1        -74.4200    -5.6480     9.6880 cl         1 I5G      -0.172000
     16 N4         -73.7790   -12.4650    12.5780 ns         1 I5G      -0.570900
     17 C19        -73.6150   -13.7990    13.1000 c3         1 I5G       0.135000
     18 C8         -72.6190   -13.8120    14.2760 c5         1 I5G       0.177500
     19 N2         -72.9890   -12.8910    15.3490 n7         1 I5G      -0.826200
     20 C10        -71.9220   -11.9190    15.5460 c5         1 I5G       0.128800
     21 C11        -70.6690   -12.6780    15.1200 c5         1 I5G       0.140100
     22 O3         -70.2500   -13.6260    16.0780 oh         1 I5G      -0.580800
     23 C9         -71.1780   -13.4310    13.9010 c5         1 I5G      -0.094400
     24 C12        -73.1680   -14.7870    12.0470 ca         1 I5G      -0.057300
     25 C14        -73.4610   -16.1380    12.2110 ca         1 I5G      -0.121000
     26 C15        -73.0170   -17.0720    11.2950 ca         1 I5G      -0.078000
     27 C17        -72.2690   -16.6650    10.1910 ca         1 I5G      -0.010000
     28 C16        -71.8160   -17.6270     9.2430 cg         1 I5G       0.236800
     29 N3         -71.4600   -18.4190     8.4860 n1         1 I5G      -0.348800
     30 C18        -71.9790   -15.3100    10.0280 ca         1 I5G       0.057400
     31 CL2        -71.0590   -14.7930     8.6670 cl         1 I5G      -0.083400
     32 C13        -72.4230   -14.3780    10.9460 ca         1 I5G      -0.116000
     33 H1         -70.7170    -9.8320    12.1480 h1         1 I5G       0.050033
     34 H2         -71.2820    -8.9310    10.7270 h1         1 I5G       0.050033
     35 H3         -71.7800    -8.4270    12.3620 h1         1 I5G       0.050033
     36 H4         -73.2520    -7.7940    10.7100 ha         1 I5G       0.155000
     37 H5         -76.8990   -11.1320    10.6920 ha         1 I5G       0.168000
     38 H6         -78.4310    -9.4500     9.6700 ha         1 I5G       0.152000
     39 H7         -78.7360    -7.1380     8.8220 h4         1 I5G       0.031100
     40 H8         -73.1120   -11.7480    12.8170 hn         1 I5G       0.336500
     41 H9         -74.5790   -14.1410    13.4910 h1         1 I5G       0.083700
     42 H10        -72.6330   -14.8420    14.6500 h1         1 I5G       0.085700
     43 H11        -73.8950   -12.4640    15.2200 hn         1 I5G       0.375800
     44 H13        -72.0190   -11.0200    14.9220 h1         1 I5G       0.037700
     45 H14        -71.8730   -11.5820    16.5850 h1         1 I5G       0.037700
     46 H15        -69.8570   -11.9860    14.8660 h1         1 I5G       0.039700
     47 H16        -70.0630   -13.1640    16.9010 ho         1 I5G       0.405000
     48 H17        -70.5640   -14.2950    13.6490 hc         1 I5G       0.062700
     49 H18        -71.1450   -12.7590    13.0380 hc         1 I5G       0.062700
     50 H19        -74.0510   -16.4630    13.0590 ha         1 I5G       0.144000
     51 H20        -73.2510   -18.1200    11.4240 ha         1 I5G       0.150000
     52 H21        -72.1920   -13.3320    10.7940 ha         1 I5G       0.153000
@<TRIPOS>BOND
     1     1     2 2   
     2     2     3 1   
     3     2    16 1   
     4     3     4 ar  
     5     3     9 ar  
     6     4     5 1   
     7     4     7 ar  
     8     5     6 1   
     9     6    33 1   
    10     6    34 1   
    11     6    35 1   
    12     7     8 ar  
    13     7    36 1   
    14     8    10 ar  
    15     8    14 ar  
    16     9    10 ar  
    17     9    37 1   
    18    10    11 ar  
    19    11    12 ar  
    20    11    38 1   
    21    12    13 ar  
    22    12    39 1   
    23    13    14 ar  
    24    14    15 1   
    25    16    17 1   
    26    16    40 1   
    27    17    18 1   
    28    17    24 1   
    29    17    41 1   
    30    18    19 1   
    31    18    23 1   
    32    18    42 1   
    33    19    20 1   
    34    19    43 1   
    35    20    21 1   
    36    20    44 1   
    37    20    45 1   
    38    21    22 1   
    39    21    23 1   
    40    21    46 1   
    41    22    47 1   
    42    23    48 1   
    43    23    49 1   
    44    24    25 ar  
    45    24    32 ar  
    46    25    26 ar  
    47    25    50 1   
    48    26    27 ar  
    49    26    51 1   
    50    27    28 1   
    51    27    30 ar  
    52    28    29 3   
    53    30    31 1   
    54    30    32 ar  
    55    32    52 1   
@<TRIPOS>SUBSTRUCTURE
     1 I5G         1 TEMP              0 ****  ****    0 ROOT
