@<TRIPOS>MOLECULE
I5H
   28    30     1     0     0
SMALL
bcc


@<TRIPOS>ATOM
      1 N1           2.6520    -1.8170    -0.6410 na         1 I5H      -0.170400
      2 C2           1.3900    -2.2190    -0.3110 cc         1 I5H      -0.100100
      3 C3           0.7110    -1.1950     0.2890 cd         1 I5H      -0.157400
      4 C4           1.6200    -0.0870     0.3310 ca         1 I5H      -0.098800
      5 C5           1.5370     1.2220     0.8230 ca         1 I5H      -0.083000
      6 C6           2.6360     2.0500     0.7130 ca         1 I5H      -0.154000
      7 C7           3.8270     1.5990     0.1170 ca         1 I5H      -0.107000
      8 C8           3.9410     0.3140    -0.3750 ca         1 I5H      -0.145000
      9 C9           2.8280    -0.5190    -0.2610 ca         1 I5H      -0.049200
     10 C10         -0.7010    -1.2200     0.7700 c3         1 I5H       0.001800
     11 C11         -1.6910    -0.7310    -0.2920 c5         1 I5H       0.022700
     12 C12         -3.1130    -0.6820     0.2410 c          1 I5H       0.702500
     13 N13         -3.5400     0.5970     0.0660 ns         1 I5H      -0.619500
     14 C14         -2.5720     1.4130    -0.5210 c          1 I5H       0.824500
     15 N15         -1.4880     0.6350    -0.7030 ns         1 I5H      -0.584900
     16 O16         -3.7290    -1.5950     0.7370 o          1 I5H      -0.583500
     17 O17         -2.7190     2.5830    -0.7950 o          1 I5H      -0.622500
     18 HN1          3.3450    -2.4000    -1.0780 hn         1 I5H       0.301700
     19 H2           1.0610    -3.2240    -0.5260 h4         1 I5H       0.164000
     20 H5           0.6250     1.5830     1.2840 ha         1 I5H       0.137000
     21 H6           2.5850     3.0630     1.0910 ha         1 I5H       0.133000
     22 H7           4.6710     2.2730     0.0460 ha         1 I5H       0.130000
     23 H8           4.8590    -0.0340    -0.8310 ha         1 I5H       0.132000
     24 H10         -0.9890    -2.2360     1.0470 hc         1 I5H       0.065700
     25 H10A        -0.8060    -0.6030     1.6670 hc         1 I5H       0.065700
     26 H11         -1.6610    -1.4090    -1.1520 h1         1 I5H       0.080700
     27 HN13        -4.4470     0.9400     0.3470 hn         1 I5H       0.355500
     28 HN15        -0.6780     0.9540    -1.2090 hn         1 I5H       0.358500
@<TRIPOS>BOND
     1     1     2 1   
     2     1     9 1   
     3     1    18 1   
     4     2     3 2   
     5     2    19 1   
     6     3     4 1   
     7     3    10 1   
     8     4     5 ar  
     9     4     9 ar  
    10     5     6 ar  
    11     5    20 1   
    12     6     7 ar  
    13     6    21 1   
    14     7     8 ar  
    15     7    22 1   
    16     8     9 ar  
    17     8    23 1   
    18    10    11 1   
    19    10    24 1   
    20    10    25 1   
    21    11    12 1   
    22    11    15 1   
    23    11    26 1   
    24    12    13 1   
    25    12    16 2   
    26    13    14 1   
    27    13    27 1   
    28    14    15 1   
    29    14    17 2   
    30    15    28 1   
@<TRIPOS>SUBSTRUCTURE
     1 I5H         1 TEMP              0 ****  ****    0 ROOT
