@<TRIPOS>MOLECULE
I5H
   28    30     1     0     0
SMALL
No Charge or Current Charge


@<TRIPOS>ATOM
      1 N1           2.6930    -1.8540    -0.6240 na         1 I5H      -0.220700
      2 C2           1.3920    -2.3110    -0.3230 cc         1 I5H      -0.150100
      3 C3           0.7470    -1.2220     0.2530 cd         1 I5H      -0.157400
      4 C4           1.6560    -0.0990     0.3080 ca         1 I5H      -0.098800
      5 C5           1.4970     1.2070     0.7920 ca         1 I5H      -0.065000
      6 C6           2.6030     2.0800     0.6940 ca         1 I5H      -0.136000
      7 C7           3.8210     1.6330     0.1250 ca         1 I5H      -0.089000
      8 C8           3.9450     0.3090    -0.3510 ca         1 I5H      -0.127000
      9 C9           2.8300    -0.5320    -0.2400 ca         1 I5H      -0.049200
     10 C10         -0.6810    -1.2150     0.7400 c3         1 I5H       0.001800
     11 C11         -1.7010    -0.7560    -0.3280 c5         1 I5H       0.022700
     12 C12         -3.1480    -0.6880     0.2500 c          1 I5H       0.560000
     13 N13         -3.4810     0.6110     0.0830 ns         1 I5H      -0.485500
     14 C14         -2.5830     1.4240    -0.4830 c          1 I5H       0.615000
     15 N15         -1.5030     0.6490    -0.7680 ns         1 I5H      -0.517900
     16 O16         -3.8550    -1.5470     0.7550 o          1 I5H      -0.508000
     17 O17         -2.7080     2.6130    -0.7010 o          1 I5H      -0.547000
     18 HN1          3.4250    -2.4090    -1.0580 hn         1 I5H       0.352000
     19 H2           1.0490    -3.3200    -0.5360 h4         1 I5H       0.214000
     20 H5           0.5580     1.5390     1.2290 ha         1 I5H       0.119000
     21 H6           2.5180     3.1010     1.0590 ha         1 I5H       0.115000
     22 H7           4.6670     2.3140     0.0550 ha         1 I5H       0.112000
     23 H8           4.8750    -0.0440    -0.7890 ha         1 I5H       0.114000
     24 H10         -0.9500    -2.2220     1.0840 hc         1 I5H       0.065700
     25 H10A        -0.7620    -0.5730     1.6250 hc         1 I5H       0.065700
     26 H11         -1.6990    -1.4550    -1.1750 h1         1 I5H       0.080700
     27 HN13        -4.3780     0.9610     0.3800 hn         1 I5H       0.355500
     28 HN15        -0.6740     1.0590    -1.1830 hn         1 I5H       0.358500
@<TRIPOS>BOND
     1     1     2 1   
     2     1     9 1   
     3     1    18 1   
     4     2     3 2   
     5     2    19 1   
     6     3     4 1   
     7     3    10 1   
     8     4     5 ar  
     9     4     9 ar  
    10     5     6 ar  
    11     5    20 1   
    12     6     7 ar  
    13     6    21 1   
    14     7     8 ar  
    15     7    22 1   
    16     8     9 ar  
    17     8    23 1   
    18    10    11 1   
    19    10    24 1   
    20    10    25 1   
    21    11    12 1   
    22    11    15 1   
    23    11    26 1   
    24    12    13 1   
    25    12    16 2   
    26    13    14 1   
    27    13    27 1   
    28    14    15 1   
    29    14    17 2   
    30    15    28 1   
@<TRIPOS>SUBSTRUCTURE
     1 I5H         1 TEMP              0 ****  ****    0 ROOT
