@<TRIPOS>MOLECULE
I5I
   26    28     1     0     0
SMALL
No Charge or Current Charge


@<TRIPOS>ATOM
      1 C1           2.4630    -0.1190     0.1760 ca         1 I5I       0.257400
      2 C2           1.3790    -1.0260     0.1420 ca         1 I5I      -0.062000
      3 C3           0.0810    -0.5030     0.2210 ca         1 I5I      -0.107800
      4 C4          -0.1380     0.8500     0.3280 ca         1 I5I       0.064100
      5 C5           0.9060     1.7790     0.3650 ca         1 I5I      -0.084000
      6 C6           2.2250     1.2750     0.2870 ca         1 I5I      -0.099000
      7 C7          -1.2120    -1.1570     0.2120 cc         1 I5I      -0.168200
      8 C8          -2.1390    -0.1240     0.3160 cd         1 I5I      -0.022500
      9 O9          -1.4770     1.0850     0.3860 os         1 I5I      -0.166200
     10 C10         -3.6120    -0.1900     0.3610 cf         1 I5I       0.642500
     11 N11         -4.3250     0.9810     0.3740 nu         1 I5I      -0.890400
     12 C12         -5.5440     0.6730    -0.4010 c5         1 I5I       0.156800
     13 C13         -5.6580    -0.8450    -0.0800 c5         1 I5I       0.085800
     14 N14         -4.2570    -1.2850     0.1390 n2         1 I5I      -0.612900
     15 N15          3.7810    -0.5980     0.0980 ne         1 I5I      -0.606800
     16 C16          4.7590    -0.9350    -0.5200 c1         1 I5I       0.431400
     17 S17          5.9910    -1.3600    -1.4370 s          1 I5I      -0.193000
     18 H2           1.5500    -2.0960     0.0580 ha         1 I5I       0.140000
     19 H5           0.7080     2.8440     0.4500 ha         1 I5I       0.141000
     20 H6           3.0660     1.9620     0.3120 ha         1 I5I       0.134000
     21 H7          -1.4360    -2.2190     0.1410 ha         1 I5I       0.236000
     22 HN11        -3.7360     1.7790     0.1400 hn         1 I5I       0.484000
     23 H12         -6.4290     1.2320    -0.0690 h1         1 I5I       0.051200
     24 H12A        -5.4020     0.8470    -1.4780 h1         1 I5I       0.051200
     25 H13         -6.2500    -1.0100     0.8320 h1         1 I5I       0.068700
     26 H13A        -6.1350    -1.3990    -0.9000 h1         1 I5I       0.068700
@<TRIPOS>BOND
     1     1     2 ar  
     2     1     6 ar  
     3     1    15 1   
     4     2     3 ar  
     5     2    18 1   
     6     3     4 ar  
     7     3     7 1   
     8     4     5 ar  
     9     4     9 1   
    10     5     6 ar  
    11     5    19 1   
    12     6    20 1   
    13     7     8 2   
    14     7    21 1   
    15     8     9 1   
    16     8    10 1   
    17    10    11 1   
    18    10    14 2   
    19    11    12 1   
    20    11    22 1   
    21    12    13 1   
    22    12    23 1   
    23    12    24 1   
    24    13    14 1   
    25    13    25 1   
    26    13    26 1   
    27    15    16 2   
    28    16    17 2   
@<TRIPOS>SUBSTRUCTURE
     1 I5I         1 TEMP              0 ****  ****    0 ROOT
