@<TRIPOS>MOLECULE
I5I
   26    28     1     0     0
SMALL
abcg2


@<TRIPOS>ATOM
      1 C1           2.4190    -0.1270     0.0070 ca         1 I5I       0.257400
      2 C2           1.3920    -1.0570    -0.0710 ca         1 I5I      -0.062000
      3 C3           0.0870    -0.5770    -0.0070 ca         1 I5I      -0.107800
      4 C4          -0.1390     0.7960     0.1300 ca         1 I5I       0.064100
      5 C5           0.8770     1.7330     0.2090 ca         1 I5I      -0.084000
      6 C6           2.1690     1.2520     0.1460 ca         1 I5I      -0.099000
      7 C7          -1.2120    -1.1760    -0.0490 cc         1 I5I      -0.168200
      8 C8          -2.0910    -0.1550     0.0620 cd         1 I5I      -0.022500
      9 O9          -1.4610     1.0460     0.1710 os         1 I5I      -0.166200
     10 C10         -3.5470    -0.1490     0.0760 cf         1 I5I       0.642500
     11 N11         -4.2450     1.0240     0.1910 nu         1 I5I      -0.890400
     12 C12         -5.6350     0.7000    -0.1100 c5         1 I5I       0.156800
     13 C13         -5.6280    -0.8260     0.1060 c5         1 I5I       0.085800
     14 N14         -4.2270    -1.2290     0.0290 n2         1 I5I      -0.612900
     15 N15          3.7170    -0.5540    -0.0510 ne         1 I5I      -0.606800
     16 C16          4.8330    -0.8990    -0.1010 c1         1 I5I       0.431400
     17 S17          6.3470    -1.3660    -0.1650 s          1 I5I      -0.193000
     18 H2           1.6040    -2.1120    -0.1780 ha         1 I5I       0.140000
     19 H5           0.6780     2.7910     0.3150 ha         1 I5I       0.141000
     20 H6           3.0040     1.9360     0.2030 ha         1 I5I       0.134000
     21 H7          -1.4570    -2.2210    -0.1480 ha         1 I5I       0.236000
     22 HN11        -3.8570     1.8740    -0.1890 hn         1 I5I       0.484000
     23 H12         -6.3240     1.2200     0.5540 h1         1 I5I       0.051200
     24 H12A        -5.8870     0.9640    -1.1410 h1         1 I5I       0.051200
     25 H13         -6.0250    -1.0880     1.0930 h1         1 I5I       0.068700
     26 H13A        -6.2320    -1.3580    -0.6290 h1         1 I5I       0.068700
@<TRIPOS>BOND
     1     1     2 ar  
     2     1     6 ar  
     3     1    15 1   
     4     2     3 ar  
     5     2    18 1   
     6     3     4 ar  
     7     3     7 1   
     8     4     5 ar  
     9     4     9 1   
    10     5     6 ar  
    11     5    19 1   
    12     6    20 1   
    13     7     8 2   
    14     7    21 1   
    15     8     9 1   
    16     8    10 1   
    17    10    11 1   
    18    10    14 2   
    19    11    12 1   
    20    11    22 1   
    21    12    13 1   
    22    12    23 1   
    23    12    24 1   
    24    13    14 1   
    25    13    25 1   
    26    13    26 1   
    27    15    16 2   
    28    16    17 2   
@<TRIPOS>SUBSTRUCTURE
     1 I5I         1 TEMP              0 ****  ****    0 ROOT
