@<TRIPOS>MOLECULE
I5K
   37    39     1     0     0
SMALL
bcc


@<TRIPOS>ATOM
      1 C15         -8.6230     7.4290    -0.2220 ca         1 I5K      -0.159000
      2 C13         -6.7760     8.0150     1.2200 ca         1 I5K      -0.194000
      3 N          -10.8510     4.9480     1.2770 na         1 I5K      -0.149100
      4 C          -12.0930     4.5320     0.9800 cc         1 I5K      -0.024600
      5 C1         -12.6280     3.2440     1.4950 c3         1 I5K      -0.032800
      6 C10         -9.2590     6.7940     0.8480 ca         1 I5K       0.029000
      7 C11         -8.6380     6.7710     2.0960 ca         1 I5K      -0.202000
      8 C12         -7.3930     7.3720     2.3010 ca         1 I5K       0.156600
      9 C14         -7.3940     8.0380    -0.0190 ca         1 I5K      -0.087000
     10 C2         -12.6470     5.4900     0.1360 cd         1 I5K      -0.258600
     11 C3         -13.9660     5.4040    -0.4710 c          1 I5K       0.614700
     12 C4         -14.2650     6.2980    -1.6590 c3         1 I5K      -0.171400
     13 C5         -13.0920     6.4550    -2.6360 c3         1 I5K      -0.062400
     14 C6         -12.1310     7.5970    -2.3000 c3         1 I5K      -0.067400
     15 C7         -11.9000     7.7880    -0.7990 c3         1 I5K      -0.010100
     16 C8         -11.6650     6.5130    -0.0600 cd         1 I5K      -0.070300
     17 C9         -10.5540     6.1430     0.6580 cc         1 I5K      -0.086300
     18 N1          -6.8190     7.3860     3.5540 nv         1 I5K      -0.825200
     19 H1          -9.0710     7.4200    -1.2070 ha         1 I5K       0.140000
     20 H2          -5.8120     8.4920     1.3560 ha         1 I5K       0.131000
     21 H3         -10.1930     4.4140     1.8270 hn         1 I5K       0.294700
     22 H4         -13.0460     2.6390     0.6920 hc         1 I5K       0.055367
     23 H5         -11.8440     2.6660     1.9820 hc         1 I5K       0.055367
     24 H6         -13.4250     3.4060     2.2210 hc         1 I5K       0.055367
     25 H7          -9.1330     6.2970     2.9380 ha         1 I5K       0.126000
     26 H8          -6.8970     8.5270    -0.8480 ha         1 I5K       0.130000
     27 H9         -14.5890     7.2780    -1.2900 hc         1 I5K       0.063200
     28 H10        -15.1300     5.8720    -2.1690 hc         1 I5K       0.063200
     29 H11        -13.4920     6.6180    -3.6390 hc         1 I5K       0.042700
     30 H12        -12.5440     5.5110    -2.6860 hc         1 I5K       0.042700
     31 H13        -11.1750     7.4160    -2.7980 hc         1 I5K       0.037700
     32 H14        -12.5180     8.5350    -2.7040 hc         1 I5K       0.037700
     33 H15        -11.0720     8.4790    -0.6420 hc         1 I5K       0.049700
     34 H16        -12.7770     8.2810    -0.3680 hc         1 I5K       0.049700
     35 H17         -7.1140     6.6550     4.1800 hn         1 I5K       0.393300
     36 H18         -5.8210     7.5210     3.5790 hn         1 I5K       0.393300
     37 O          -14.8050     4.6090    -0.0730 o          1 I5K      -0.560100
@<TRIPOS>BOND
     1     1     6 ar  
     2     1     9 ar  
     3     1    19 1   
     4     2     8 ar  
     5     2     9 ar  
     6     2    20 1   
     7     3     4 1   
     8     3    17 1   
     9     3    21 1   
    10     4     5 1   
    11     4    10 2   
    12     5    22 1   
    13     5    23 1   
    14     5    24 1   
    15     6     7 ar  
    16     6    17 1   
    17     7     8 ar  
    18     7    25 1   
    19     8    18 1   
    20     9    26 1   
    21    10    11 1   
    22    10    16 1   
    23    11    12 1   
    24    11    37 2   
    25    12    13 1   
    26    12    27 1   
    27    12    28 1   
    28    13    14 1   
    29    13    29 1   
    30    13    30 1   
    31    14    15 1   
    32    14    31 1   
    33    14    32 1   
    34    15    16 1   
    35    15    33 1   
    36    15    34 1   
    37    16    17 2   
    38    18    35 1   
    39    18    36 1   
@<TRIPOS>SUBSTRUCTURE
     1 I5K         1 TEMP              0 ****  ****    0 ROOT
