@<TRIPOS>MOLECULE
I5K
   37    39     1     0     0
SMALL
No Charge or Current Charge


@<TRIPOS>ATOM
      1 C15         -8.4820     7.1210    -0.2870 ca         1 I5K      -0.141000
      2 C13         -6.7640     8.0400     1.1660 ca         1 I5K      -0.176000
      3 N          -10.7840     4.7300     1.2830 na         1 I5K      -0.098000
      4 C          -12.0650     4.3420     0.9060 cc         1 I5K      -0.075300
      5 C1         -12.6950     3.0490     1.3620 c3         1 I5K      -0.032800
      6 C10         -9.2050     6.6730     0.8370 ca         1 I5K       0.029000
      7 C11         -8.6790     6.8950     2.1240 ca         1 I5K      -0.184000
      8 C12         -7.4680     7.5810     2.2880 ca         1 I5K       0.295000
      9 C14         -7.2680     7.8080    -0.1240 ca         1 I5K      -0.069000
     10 C2         -12.5550     5.3570     0.1030 cd         1 I5K      -0.258600
     11 C3         -13.9090     5.3250    -0.5410 c          1 I5K       0.614700
     12 C4         -14.3440     6.5060    -1.4200 c3         1 I5K      -0.171400
     13 C5         -13.3510     6.7100    -2.5890 c3         1 I5K      -0.062400
     14 C6         -12.0960     7.5650    -2.2540 c3         1 I5K      -0.067400
     15 C7         -11.7080     7.6870    -0.7580 c3         1 I5K      -0.010100
     16 C8         -11.5540     6.3700    -0.0240 cd         1 I5K      -0.070300
     17 C9         -10.4560     5.9330     0.6790 cc         1 I5K      -0.137000
     18 N1          -6.9710     7.8000     3.5440 nv         1 I5K      -1.074000
     19 H1          -8.8600     6.9270    -1.2880 ha         1 I5K       0.122000
     20 H2          -5.8240     8.5720     1.2890 ha         1 I5K       0.113000
     21 H3         -10.1680     4.1970     1.8870 hn         1 I5K       0.345000
     22 H4         -12.9000     2.3910     0.5100 hc         1 I5K       0.055367
     23 H5         -12.0380     2.5050     2.0510 hc         1 I5K       0.055367
     24 H6         -13.6410     3.2370     1.8850 hc         1 I5K       0.055367
     25 H7          -9.2230     6.5420     2.9950 ha         1 I5K       0.108000
     26 H8          -6.7170     8.1550    -0.9960 ha         1 I5K       0.112000
     27 H9         -14.3640     7.4220    -0.8230 hc         1 I5K       0.063200
     28 H10        -15.3500     6.3150    -1.8120 hc         1 I5K       0.063200
     29 H11        -13.8790     7.1910    -3.4230 hc         1 I5K       0.042700
     30 H12        -13.0320     5.7290    -2.9640 hc         1 I5K       0.042700
     31 H13        -11.2410     7.1630    -2.8110 hc         1 I5K       0.037700
     32 H14        -12.2570     8.5800    -2.6390 hc         1 I5K       0.037700
     33 H15        -10.7900     8.2790    -0.7000 hc         1 I5K       0.049700
     34 H16        -12.4480     8.3050    -0.2370 hc         1 I5K       0.049700
     35 H17         -7.4040     7.3470     4.3460 hn         1 I5K       0.448500
     36 H18         -6.0280     8.1680     3.6610 hn         1 I5K       0.448500
     37 O          -14.6340     4.3380    -0.4760 o          1 I5K      -0.560100
@<TRIPOS>BOND
     1     1     6 ar  
     2     1     9 ar  
     3     1    19 1   
     4     2     8 ar  
     5     2     9 ar  
     6     2    20 1   
     7     3     4 1   
     8     3    17 1   
     9     3    21 1   
    10     4     5 1   
    11     4    10 2   
    12     5    22 1   
    13     5    23 1   
    14     5    24 1   
    15     6     7 ar  
    16     6    17 1   
    17     7     8 ar  
    18     7    25 1   
    19     8    18 1   
    20     9    26 1   
    21    10    11 1   
    22    10    16 1   
    23    11    12 1   
    24    11    37 2   
    25    12    13 1   
    26    12    27 1   
    27    12    28 1   
    28    13    14 1   
    29    13    29 1   
    30    13    30 1   
    31    14    15 1   
    32    14    31 1   
    33    14    32 1   
    34    15    16 1   
    35    15    33 1   
    36    15    34 1   
    37    16    17 2   
    38    18    35 1   
    39    18    36 1   
@<TRIPOS>SUBSTRUCTURE
     1 I5K         1 TEMP              0 ****  ****    0 ROOT
