@<TRIPOS>MOLECULE
I5L
   35    37     1     0     0
SMALL
No Charge or Current Charge


@<TRIPOS>ATOM
      1 C10        -51.1900    23.6100   -47.3090 ca         1 I5L      -0.070800
      2 C13        -53.7380    23.3290   -48.6140 ca         1 I5L      -0.041000
      3 C15        -48.6540    24.0440   -47.0600 ce         1 I5L      -0.197000
      4 C17        -47.0570    24.4350   -49.0050 cf         1 I5L      -0.207400
      5 C20        -45.8220    23.9920   -48.2710 c          1 I5L       0.565100
      6 C01        -56.7080    24.7020   -45.1570 ca         1 I5L       0.115100
      7 C02        -55.9740    25.0460   -43.9930 ca         1 I5L      -0.173000
      8 C03        -54.5620    24.9560   -43.9760 ca         1 I5L      -0.067000
      9 C04        -53.9320    24.5170   -45.1450 ca         1 I5L       0.048100
     10 C05        -54.6420    24.1760   -46.2940 cp         1 I5L      -0.051000
     11 C06        -56.0450    24.2610   -46.3230 ca         1 I5L      -0.090000
     12 C08        -52.4000    23.8980   -46.6600 ca         1 I5L       0.105100
     13 C09        -53.6420    23.7720   -47.2850 cp         1 I5L      -0.097000
     14 C11        -51.2830    23.1410   -48.6440 ca         1 I5L      -0.069000
     15 C12        -52.5400    23.0080   -49.2880 ca         1 I5L      -0.139000
     16 C14        -49.9030    23.7450   -46.5960 cf         1 I5L      -0.113200
     17 C16        -48.3040    24.4220   -48.4400 ce         1 I5L      -0.124000
     18 C18        -46.8630    24.8770   -50.4520 c3         1 I5L      -0.045900
     19 O07        -52.5800    24.3500   -45.3660 os         1 I5L      -0.189200
     20 O19        -58.0680    24.7950   -45.1530 oh         1 I5L      -0.538100
     21 O21        -44.6990    24.0090   -48.7660 o          1 I5L      -0.525100
     22 H1         -54.7040    23.2270   -49.1030 ha         1 I5L       0.125000
     23 H2         -47.8510    24.0540   -46.3220 ha         1 I5L       0.179000
     24 H3         -45.9610    23.6320   -47.2300 h4         1 I5L      -0.009800
     25 H4         -56.4930    25.3840   -43.0990 ha         1 I5L       0.119000
     26 H5         -53.9860    25.2160   -43.0920 ha         1 I5L       0.135000
     27 H6         -56.6030    23.9960   -47.2180 ha         1 I5L       0.137000
     28 H7         -50.3870    22.8500   -49.1840 ha         1 I5L       0.123000
     29 H8         -52.5830    22.6460   -50.3130 ha         1 I5L       0.121000
     30 H9         -49.9860    23.5540   -45.5230 ha         1 I5L       0.188000
     31 H10        -49.1380    24.7510   -49.0610 ha         1 I5L       0.179000
     32 H11        -46.3270    24.1180   -51.0330 hc         1 I5L       0.048367
     33 H12        -47.8180    25.0580   -50.9610 hc         1 I5L       0.048367
     34 H13        -46.2840    25.8070   -50.5060 hc         1 I5L       0.048367
     35 H14        -58.3580    25.1140   -44.2710 ho         1 I5L       0.464000
@<TRIPOS>BOND
     1     1    12 ar  
     2     1    14 ar  
     3     1    16 1   
     4     2    13 ar  
     5     2    15 ar  
     6     2    22 1   
     7     3    16 2   
     8     3    17 1   
     9     3    23 1   
    10     4     5 1   
    11     4    17 2   
    12     4    18 1   
    13     5    21 2   
    14     5    24 1   
    15     6     7 ar  
    16     6    11 ar  
    17     6    20 1   
    18     7     8 ar  
    19     7    25 1   
    20     8     9 ar  
    21     8    26 1   
    22     9    10 ar  
    23     9    19 1   
    24    10    11 ar  
    25    10    13 1   
    26    11    27 1   
    27    12    13 ar  
    28    12    19 1   
    29    14    15 ar  
    30    14    28 1   
    31    15    29 1   
    32    16    30 1   
    33    17    31 1   
    34    18    32 1   
    35    18    33 1   
    36    18    34 1   
    37    20    35 1   
@<TRIPOS>SUBSTRUCTURE
     1 I5L         1 TEMP              0 ****  ****    0 ROOT
