@<TRIPOS>MOLECULE
I5L
   35    37     1     0     0
SMALL
abcg2


@<TRIPOS>ATOM
      1 C10        -51.1700    23.5070   -47.3130 ca         1 I5L      -0.070800
      2 C13        -53.6950    23.2660   -48.6510 ca         1 I5L      -0.041000
      3 C15        -48.6900    23.9120   -47.0350 ce         1 I5L      -0.197000
      4 C17        -47.1680    24.4790   -48.9590 cf         1 I5L      -0.207400
      5 C20        -45.9460    24.1000   -48.2570 c          1 I5L       0.565100
      6 C01        -56.5910    24.7830   -45.1840 ca         1 I5L       0.115100
      7 C02        -55.8280    25.1170   -44.0560 ca         1 I5L      -0.173000
      8 C03        -54.4420    24.9840   -44.0600 ca         1 I5L      -0.067000
      9 C04        -53.8620    24.5150   -45.2200 ca         1 I5L       0.048100
     10 C05        -54.6040    24.1770   -46.3600 cp         1 I5L      -0.051000
     11 C06        -55.9900    24.3120   -46.3470 ca         1 I5L      -0.090000
     12 C08        -52.3830    23.8350   -46.7060 ca         1 I5L       0.105100
     13 C09        -53.6310    23.7320   -47.3390 cp         1 I5L      -0.097000
     14 C11        -51.2780    23.0230   -48.6270 ca         1 I5L      -0.069000
     15 C12        -52.5070    22.9110   -49.2790 ca         1 I5L      -0.139000
     16 C14        -49.9210    23.6160   -46.5670 cf         1 I5L      -0.113200
     17 C16        -48.3880    24.3360   -48.3790 ce         1 I5L      -0.124000
     18 C18        -47.0160    25.0090   -50.3540 c3         1 I5L      -0.045900
     19 O07        -52.5080    24.3140   -45.4260 os         1 I5L      -0.189200
     20 O19        -57.9540    24.9070   -45.1860 oh         1 I5L      -0.538100
     21 O21        -44.8270    24.2010   -48.7420 o          1 I5L      -0.525100
     22 H1         -54.6450    23.1720   -49.1610 ha         1 I5L       0.125000
     23 H2         -47.8820    23.8790   -46.3150 ha         1 I5L       0.179000
     24 H3         -46.0590    23.6950   -47.2400 h4         1 I5L      -0.009800
     25 H4         -56.3290    25.4820   -43.1670 ha         1 I5L       0.119000
     26 H5         -53.8510    25.2400   -43.1910 ha         1 I5L       0.135000
     27 H6         -56.5950    24.0600   -47.2080 ha         1 I5L       0.137000
     28 H7         -50.3850    22.6860   -49.1340 ha         1 I5L       0.123000
     29 H8         -52.5300    22.5250   -50.2900 ha         1 I5L       0.121000
     30 H9         -50.0110    23.4370   -45.5000 ha         1 I5L       0.188000
     31 H10        -49.2450    24.6040   -48.9890 ha         1 I5L       0.179000
     32 H11        -46.5020    24.2860   -50.9920 hc         1 I5L       0.048367
     33 H12        -47.9860    25.2360   -50.7930 hc         1 I5L       0.048367
     34 H13        -46.4080    25.9180   -50.3600 hc         1 I5L       0.048367
     35 H14        -58.2570    25.2360   -44.3290 ho         1 I5L       0.464000
@<TRIPOS>BOND
     1     1    12 ar  
     2     1    14 ar  
     3     1    16 1   
     4     2    13 ar  
     5     2    15 ar  
     6     2    22 1   
     7     3    16 2   
     8     3    17 1   
     9     3    23 1   
    10     4     5 1   
    11     4    17 2   
    12     4    18 1   
    13     5    21 2   
    14     5    24 1   
    15     6     7 ar  
    16     6    11 ar  
    17     6    20 1   
    18     7     8 ar  
    19     7    25 1   
    20     8     9 ar  
    21     8    26 1   
    22     9    10 ar  
    23     9    19 1   
    24    10    11 ar  
    25    10    13 1   
    26    11    27 1   
    27    12    13 ar  
    28    12    19 1   
    29    14    15 ar  
    30    14    28 1   
    31    15    29 1   
    32    16    30 1   
    33    17    31 1   
    34    18    32 1   
    35    18    33 1   
    36    18    34 1   
    37    20    35 1   
@<TRIPOS>SUBSTRUCTURE
     1 I5L         1 TEMP              0 ****  ****    0 ROOT
