@<TRIPOS>MOLECULE
I5M
   94    97     1     0     0
SMALL
No Charge or Current Charge


@<TRIPOS>ATOM
      1 N            7.9460    17.2780    23.9350 n7         1 I5M      -0.828400
      2 S            9.0680    14.5740    27.8340 s6         1 I5M       1.213100
      3 C1          10.1540    17.3360    23.2030 c5         1 I5M      -0.104400
      4 N1          10.0710    15.7310    28.4760 n7         1 I5M      -0.870300
      5 O1           9.8960    13.3830    27.6470 o          1 I5M      -0.545000
      6 C2           9.2760    17.8030    22.0040 c5         1 I5M      -0.111400
      7 N2          10.2770    20.0750    26.3320 na         1 I5M      -0.315300
      8 O2          11.0600    18.2980    27.6710 os         1 I5M      -0.461000
      9 C3           9.1690    16.4500    24.0040 c5         1 I5M       0.150500
     10 N3           8.3120    20.2040    25.1230 nc         1 I5M      -0.547100
     11 O3          12.2440    20.4860    29.5670 oh         1 I5M      -0.684000
     12 C4           9.6210    16.1080    25.4580 c3         1 I5M       0.113300
     13 C5           8.5800    15.2560    26.2390 c3         1 I5M      -0.344400
     14 C6           9.4780    16.9840    28.9830 c3         1 I5M       0.211800
     15 N6          11.6780    21.3180    24.7190 nb         1 I5M      -0.222000
     16 N7          12.0810    12.3060    26.0740 ns         1 I5M      -0.510900
     17 C8          11.2170    19.7080    27.3940 c5         1 I5M       0.278300
     18 O10         11.4660    10.0370    34.9920 o          1 I5M      -0.662500
     19 P           12.5160     9.2510    35.7560 p4         1 I5M       1.370900
     20 O9          12.5460     7.8330    36.2780 o          1 I5M      -0.482000
     21 O8          14.0210     9.9220    35.6020 os         1 I5M      -0.615400
     22 C23         14.6740    11.3740    33.7010 c3         1 I5M      -0.087000
     23 C24         16.0010    10.5670    33.5710 c3         1 I5M      -0.084100
     24 C25         14.9890    12.8680    33.3840 c3         1 I5M      -0.084100
     25 C22         13.5930    10.8220    32.6940 c3         1 I5M       0.092300
     26 O7          12.3240    11.5020    32.9010 oh         1 I5M      -0.694000
     27 C21         14.0390    10.8770    31.1890 c          1 I5M       0.595100
     28 O6          14.7680    10.0410    30.6680 o          1 I5M      -0.605100
     29 N8          13.4900    11.9130    30.4650 ns         1 I5M      -0.488900
     30 C20         13.7100    12.1660    29.0410 c3         1 I5M       0.111000
     31 C19         12.8280    11.2660    28.1570 c3         1 I5M      -0.182400
     32 C18         13.0680    11.5740    26.6820 c          1 I5M       0.597100
     33 O5          14.0520    11.1750    26.0770 o          1 I5M      -0.623100
     34 C17         12.1180    12.7620    24.6820 c3         1 I5M       0.118000
     35 S1          11.3020    15.3200    25.4900 ss         1 I5M      -0.448000
     36 O            7.8950    14.5180    28.7070 o          1 I5M      -0.545000
     37 C7          10.5280    18.1200    29.0090 c5         1 I5M       0.141300
     38 C10          9.9820    19.5180    29.4370 c5         1 I5M       0.155300
     39 O4           9.9740    19.7180    30.8510 oh         1 I5M      -0.681000
     40 C9          11.0380    20.4450    28.7700 c5         1 I5M       0.100300
     41 C15         10.5350    20.7730    25.1800 ca         1 I5M       0.139500
     42 C12          9.3590    20.8470    24.4770 ca         1 I5M      -0.107600
     43 C11          8.9090    19.7550    26.2400 cd         1 I5M       0.397700
     44 C14         11.5940    21.9440    23.5220 ca         1 I5M       0.188900
     45 N5          10.4870    22.0790    22.7540 nb         1 I5M      -0.291000
     46 C13          9.3650    21.5280    23.2430 ca         1 I5M       0.446900
     47 N4           8.2470    21.6700    22.4820 nv         1 I5M      -1.059900
     48 C27          7.8170    17.5640    22.4920 c5         1 I5M       0.135800
     49 H1           8.1380    18.1750    24.4020 hn         1 I5M       0.401000
     50 H3          11.0440    16.7870    22.8760 hc         1 I5M       0.059200
     51 H4          10.5010    18.1880    23.7990 hc         1 I5M       0.059200
     52 H5          10.6260    15.9560    27.6480 hn         1 I5M       0.507000
     53 H6           9.4830    17.2230    21.0970 hc         1 I5M       0.049200
     54 H7           9.4600    18.8550    21.7620 hc         1 I5M       0.049200
     55 H8           9.0030    15.5000    23.4750 h1         1 I5M       0.066700
     56 H9          12.8560    21.1430    29.1550 ho         1 I5M       0.515000
     57 H10          9.7230    17.0680    25.9770 h1         1 I5M       0.087700
     58 H11          7.6950    15.8670    26.4410 h1         1 I5M       0.114700
     59 H12          8.2640    14.3920    25.6470 h1         1 I5M       0.114700
     60 H13          8.6480    17.3130    28.3420 h1         1 I5M       0.064200
     61 H14          9.0710    16.8410    29.9930 h1         1 I5M       0.064200
     62 H15         11.3130    12.6200    26.6640 hn         1 I5M       0.353500
     63 H16         12.2180    19.8990    26.9850 h2         1 I5M       0.124700
     64 H19         14.9480    11.7670    35.8220 h1         1 I5M       0.067200
     65 H20         13.2670    11.8830    35.3290 h1         1 I5M       0.067200
     66 H21         15.8230     9.4900    33.6800 hc         1 I5M       0.049700
     67 H22         16.4820    10.7330    32.6000 hc         1 I5M       0.049700
     68 H23         16.7190    10.8680    34.3440 hc         1 I5M       0.049700
     69 H24         14.0900    13.4910    33.4680 hc         1 I5M       0.049700
     70 H25         15.7360    13.2670    34.0820 hc         1 I5M       0.049700
     71 H26         15.3910    12.9890    32.3710 hc         1 I5M       0.049700
     72 H27         13.4550     9.7530    32.9040 h1         1 I5M       0.035700
     73 H29         12.8480    12.5040    30.9840 hn         1 I5M       0.338500
     74 H30         14.7700    11.9980    28.8040 h1         1 I5M       0.067700
     75 H31         13.4820    13.2210    28.8330 h1         1 I5M       0.067700
     76 H32         11.7800    11.4490    28.4180 hc         1 I5M       0.072200
     77 H33         13.0900    10.2200    28.3480 hc         1 I5M       0.072200
     78 H34         11.9540    11.9000    24.0210 h1         1 I5M       0.061700
     79 H35         13.1110    13.1780    24.4650 h1         1 I5M       0.061700
     80 H38         11.3530    17.8160    29.6680 h1         1 I5M       0.110700
     81 H39          8.9800    19.6970    29.0270 h1         1 I5M       0.038700
     82 H40         10.8820    20.0660    31.0370 ho         1 I5M       0.517000
     83 H41         10.6390    21.4590    28.6230 h1         1 I5M       0.067700
     84 H42          8.4150    19.1770    27.0090 h5         1 I5M       0.064800
     85 H43         12.5120    22.3880    23.1380 h5         1 I5M       0.055100
     86 H44          8.3570    21.9110    21.5010 hn         1 I5M       0.508500
     87 H45          7.4390    21.1100    22.7360 hn         1 I5M       0.508500
     88 H46          7.1680    18.4310    22.3070 h1         1 I5M       0.051200
     89 H47          7.3770    16.7010    21.9720 h1         1 I5M       0.051200
     90 C16         11.0470    13.8350    24.4030 c3         1 I5M       0.054600
     91 H28         11.8540    11.0250    33.6390 ho         1 I5M       0.493000
     92 C26         14.1840    11.2950    35.1880 c3         1 I5M       0.224600
     93 H36         10.0550    13.4040    24.5880 h1         1 I5M       0.071700
     94 H37         11.0980    14.1420    23.3500 h1         1 I5M       0.071700
@<TRIPOS>BOND
     1     1     9 1   
     2     1    48 1   
     3     1    49 1   
     4     2     4 1   
     5     2     5 2   
     6     2    13 1   
     7     2    36 2   
     8     3     6 1   
     9     3     9 1   
    10     3    50 1   
    11     3    51 1   
    12     4    14 1   
    13     4    52 1   
    14     6    48 1   
    15     6    53 1   
    16     6    54 1   
    17     7    17 1   
    18     7    41 1   
    19     7    43 1   
    20     8    17 1   
    21     8    37 1   
    22     9    12 1   
    23     9    55 1   
    24    10    42 1   
    25    10    43 2   
    26    11    40 1   
    27    11    56 1   
    28    12    13 1   
    29    12    35 1   
    30    12    57 1   
    31    13    58 1   
    32    13    59 1   
    33    14    37 1   
    34    14    60 1   
    35    14    61 1   
    36    15    41 ar  
    37    15    44 ar  
    38    16    32 1   
    39    16    34 1   
    40    16    62 1   
    41    17    40 1   
    42    17    63 1   
    43    18    19 1   
    44    19    20 2   
    45    19    21 1   
    46    21    92 1   
    47    22    23 1   
    48    22    24 1   
    49    22    25 1   
    50    22    92 1   
    51    23    66 1   
    52    23    67 1   
    53    23    68 1   
    54    24    69 1   
    55    24    70 1   
    56    24    71 1   
    57    25    26 1   
    58    25    27 1   
    59    25    72 1   
    60    26    91 1   
    61    27    28 2   
    62    27    29 1   
    63    29    30 1   
    64    29    73 1   
    65    30    31 1   
    66    30    74 1   
    67    30    75 1   
    68    31    32 1   
    69    31    76 1   
    70    31    77 1   
    71    32    33 2   
    72    34    78 1   
    73    34    79 1   
    74    34    90 1   
    75    35    90 1   
    76    37    38 1   
    77    37    80 1   
    78    38    39 1   
    79    38    40 1   
    80    38    81 1   
    81    39    82 1   
    82    40    83 1   
    83    41    42 ar  
    84    42    46 ar  
    85    43    84 1   
    86    44    45 ar  
    87    44    85 1   
    88    45    46 ar  
    89    46    47 1   
    90    47    86 1   
    91    47    87 1   
    92    48    88 1   
    93    48    89 1   
    94    64    92 1   
    95    65    92 1   
    96    90    93 1   
    97    90    94 1   
@<TRIPOS>SUBSTRUCTURE
     1 I5M         1 TEMP              0 ****  ****    0 ROOT
