@<TRIPOS>MOLECULE
I5M
   94    97     1     0     0
SMALL
abcg2


@<TRIPOS>ATOM
      1 N            7.8570    17.3520    23.6300 n7         1 I5M      -0.828400
      2 S            8.4900    14.9010    27.5730 s6         1 I5M       1.213100
      3 C1          10.1490    17.2930    22.9600 c5         1 I5M      -0.104400
      4 N1           9.4580    15.9220    28.4030 n7         1 I5M      -0.870300
      5 O1           9.1970    13.6390    27.4920 o          1 I5M      -0.545000
      6 C2           9.3560    17.8540    21.7670 c5         1 I5M      -0.111400
      7 N2          10.0910    20.1990    26.1780 na         1 I5M      -0.315300
      8 O2          10.6870    18.4070    27.5940 os         1 I5M      -0.461000
      9 C3           9.0820    16.5420    23.7700 c5         1 I5M       0.150500
     10 N3           8.3040    20.6190    24.8850 nc         1 I5M      -0.547100
     11 O3          11.8380    20.6030    29.3880 oh         1 I5M      -0.684000
     12 C4           9.4120    16.2970    25.2440 c3         1 I5M       0.113300
     13 C5           8.2530    15.5350    25.9020 c3         1 I5M      -0.344400
     14 C6           8.9460    17.2500    28.7840 c3         1 I5M       0.211800
     15 N6          11.8580    20.6790    24.5590 nb         1 I5M      -0.222000
     16 N7          11.9390    12.7690    26.5630 ns         1 I5M      -0.510900
     17 C8          10.9090    19.7790    27.3060 c5         1 I5M       0.278300
     18 O10         11.9410     9.7980    35.4200 o          1 I5M      -0.662500
     19 P           12.9330     8.7420    35.6440 p4         1 I5M       1.370900
     20 O9          12.7330     7.3370    35.9740 o          1 I5M      -0.482000
     21 O8          14.4200     9.1470    35.5070 os         1 I5M      -0.615400
     22 C23         15.2280    10.7460    33.7730 c3         1 I5M      -0.087000
     23 C24         16.2170     9.6690    33.3130 c3         1 I5M      -0.084100
     24 C25         15.8780    12.1350    33.6920 c3         1 I5M      -0.084100
     25 C22         13.9100    10.7230    32.9360 c3         1 I5M       0.092300
     26 O7          12.9490    11.6320    33.4590 oh         1 I5M      -0.694000
     27 C21         14.1510    11.0440    31.4570 c          1 I5M       0.595100
     28 O6          14.7770    10.2670    30.7360 o          1 I5M      -0.605100
     29 N8          13.6430    12.2060    31.0250 ns         1 I5M      -0.488900
     30 C20         13.7480    12.6310    29.6420 c3         1 I5M       0.111000
     31 C19         12.6550    12.0200    28.7580 c3         1 I5M      -0.182400
     32 C18         12.9430    12.2520    27.2860 c          1 I5M       0.597100
     33 O5          14.0400    11.9670    26.7950 o          1 I5M      -0.623100
     34 C17         12.0590    13.0460    25.1410 c3         1 I5M       0.118000
     35 S1          11.0720    15.5810    25.4910 ss         1 I5M      -0.448000
     36 O            7.1940    14.9170    28.2120 o          1 I5M      -0.545000
     37 C7          10.0900    18.2330    28.8920 c5         1 I5M       0.141300
     38 C10          9.6500    19.6270    29.3390 c5         1 I5M       0.155300
     39 O4           9.6530    19.6960    30.7460 oh         1 I5M      -0.681000
     40 C9          10.6520    20.5450    28.6160 c5         1 I5M       0.100300
     41 C15         10.5830    20.5830    24.9480 ca         1 I5M       0.139500
     42 C12          9.4630    20.8460    24.1630 ca         1 I5M      -0.107600
     43 C11          8.7160    20.2390    26.0690 cd         1 I5M       0.397700
     44 C14         11.9630    21.0690    23.2900 ca         1 I5M       0.188900
     45 N5          10.9810    21.3610    22.4300 nb         1 I5M      -0.291000
     46 C13          9.7020    21.2620    22.8390 ca         1 I5M       0.446900
     47 N4           8.7170    21.5730    21.9820 nv         1 I5M      -1.059900
     48 C27          7.8730    17.8280    22.2330 c5         1 I5M       0.135800
     49 H1           7.9540    18.1630    24.2360 hn         1 I5M       0.401000
     50 H3          10.9760    16.6540    22.6540 hc         1 I5M       0.059200
     51 H4          10.5570    18.0980    23.5730 hc         1 I5M       0.059200
     52 H5          10.3920    15.9180    27.9990 hn         1 I5M       0.507000
     53 H6           9.4880    17.2260    20.8840 hc         1 I5M       0.049200
     54 H7           9.6830    18.8580    21.5040 hc         1 I5M       0.049200
     55 H8           8.8890    15.5750    23.2910 h1         1 I5M       0.066700
     56 H9          12.4430    21.2290    28.9700 ho         1 I5M       0.515000
     57 H10          9.5180    17.2640    25.7380 h1         1 I5M       0.087700
     58 H11          7.3870    16.1910    25.9640 h1         1 I5M       0.114700
     59 H12          7.9680    14.6540    25.3250 h1         1 I5M       0.114700
     60 H13          8.2270    17.6280    28.0530 h1         1 I5M       0.064200
     61 H14          8.4450    17.1770    29.7490 h1         1 I5M       0.064200
     62 H15         11.0650    13.0020    27.0170 hn         1 I5M       0.353500
     63 H16         11.9390    19.9170    26.9800 h2         1 I5M       0.124700
     64 H19         15.7980    10.5950    35.8500 h1         1 I5M       0.067200
     65 H20         14.1500    11.2220    35.6160 h1         1 I5M       0.067200
     66 H21         15.7550     8.6810    33.3070 hc         1 I5M       0.049700
     67 H22         16.5770     9.8780    32.3100 hc         1 I5M       0.049700
     68 H23         17.0700     9.6440    33.9940 hc         1 I5M       0.049700
     69 H24         15.1810    12.9170    33.9950 hc         1 I5M       0.049700
     70 H25         16.7570    12.1830    34.3360 hc         1 I5M       0.049700
     71 H26         16.2000    12.3390    32.6700 hc         1 I5M       0.049700
     72 H27         13.5080     9.7050    32.9380 h1         1 I5M       0.035700
     73 H29         13.0720    12.7320    31.6690 hn         1 I5M       0.338500
     74 H30         14.7240    12.3330    29.2640 h1         1 I5M       0.067700
     75 H31         13.6890    13.7190    29.6180 h1         1 I5M       0.067700
     76 H32         11.6760    12.4110    29.0370 hc         1 I5M       0.072200
     77 H33         12.6430    10.9380    28.9140 hc         1 I5M       0.072200
     78 H34         12.0170    12.1150    24.5670 h1         1 I5M       0.061700
     79 H35         13.0340    13.4970    24.9490 h1         1 I5M       0.061700
     80 H38         10.8510    17.8570    29.5820 h1         1 I5M       0.110700
     81 H39          8.6490    19.8370    28.9530 h1         1 I5M       0.038700
     82 H40          9.1730    20.4880    31.0200 ho         1 I5M       0.517000
     83 H41         10.2490    21.5410    28.4260 h1         1 I5M       0.067700
     84 H42          8.0690    19.9650    26.8850 h5         1 I5M       0.064800
     85 H43         12.9710    21.1630    22.9000 h5         1 I5M       0.055100
     86 H44          8.9420    21.7640    21.0190 hn         1 I5M       0.508500
     87 H45          7.7560    21.4030    22.2280 hn         1 I5M       0.508500
     88 H46          7.3940    18.8050    22.1770 h1         1 I5M       0.051200
     89 H47          7.2950    17.1390    21.6130 h1         1 I5M       0.051200
     90 C16         10.9400    13.9570    24.6650 c3         1 I5M       0.054600
     91 H28         12.4010    11.1640    34.1080 ho         1 I5M       0.493000
     92 C26         14.8970    10.5250    35.2470 c3         1 I5M       0.224600
     93 H36          9.9710    13.5180    24.8960 h1         1 I5M       0.071700
     94 H37         11.0160    14.0890    23.5870 h1         1 I5M       0.071700
@<TRIPOS>BOND
     1     1     9 1   
     2     1    48 1   
     3     1    49 1   
     4     2     4 1   
     5     2     5 2   
     6     2    13 1   
     7     2    36 2   
     8     3     6 1   
     9     3     9 1   
    10     3    50 1   
    11     3    51 1   
    12     4    14 1   
    13     4    52 1   
    14     6    48 1   
    15     6    53 1   
    16     6    54 1   
    17     7    17 1   
    18     7    41 1   
    19     7    43 1   
    20     8    17 1   
    21     8    37 1   
    22     9    12 1   
    23     9    55 1   
    24    10    42 1   
    25    10    43 2   
    26    11    40 1   
    27    11    56 1   
    28    12    13 1   
    29    12    35 1   
    30    12    57 1   
    31    13    58 1   
    32    13    59 1   
    33    14    37 1   
    34    14    60 1   
    35    14    61 1   
    36    15    41 ar  
    37    15    44 ar  
    38    16    32 1   
    39    16    34 1   
    40    16    62 1   
    41    17    40 1   
    42    17    63 1   
    43    18    19 1   
    44    19    20 2   
    45    19    21 1   
    46    21    92 1   
    47    22    23 1   
    48    22    24 1   
    49    22    25 1   
    50    22    92 1   
    51    23    66 1   
    52    23    67 1   
    53    23    68 1   
    54    24    69 1   
    55    24    70 1   
    56    24    71 1   
    57    25    26 1   
    58    25    27 1   
    59    25    72 1   
    60    26    91 1   
    61    27    28 2   
    62    27    29 1   
    63    29    30 1   
    64    29    73 1   
    65    30    31 1   
    66    30    74 1   
    67    30    75 1   
    68    31    32 1   
    69    31    76 1   
    70    31    77 1   
    71    32    33 2   
    72    34    78 1   
    73    34    79 1   
    74    34    90 1   
    75    35    90 1   
    76    37    38 1   
    77    37    80 1   
    78    38    39 1   
    79    38    40 1   
    80    38    81 1   
    81    39    82 1   
    82    40    83 1   
    83    41    42 ar  
    84    42    46 ar  
    85    43    84 1   
    86    44    45 ar  
    87    44    85 1   
    88    45    46 ar  
    89    46    47 1   
    90    47    86 1   
    91    47    87 1   
    92    48    88 1   
    93    48    89 1   
    94    64    92 1   
    95    65    92 1   
    96    90    93 1   
    97    90    94 1   
@<TRIPOS>SUBSTRUCTURE
     1 I5M         1 TEMP              0 ****  ****    0 ROOT
