@<TRIPOS>MOLECULE
I5Q
   16    15     1     0     0
SMALL
bcc


@<TRIPOS>ATOM
      1 C01         -7.5400   -18.8680     8.3830 c3         1 I5Q      -0.082100
      2 C02         -8.2310   -19.0530     9.7280 c3         1 I5Q      -0.071400
      3 C03         -8.6560   -17.7480    10.3810 c3         1 I5Q       0.148100
      4 C05         -9.4150   -18.0050    11.6720 c3         1 I5Q       0.096400
      5 O04         -7.5020   -16.9680    10.6190 oh         1 I5Q      -0.599800
      6 O06         -9.8090   -16.7580    12.2050 oh         1 I5Q      -0.609800
      7 H012        -7.3150   -19.8330     7.9280 hc         1 I5Q       0.036367
      8 H011        -8.1750   -18.3160     7.6880 hc         1 I5Q       0.036367
      9 H013        -6.6020   -18.3240     8.4790 hc         1 I5Q       0.036367
     10 H022        -9.1240   -19.6690     9.5930 hc         1 I5Q       0.042200
     11 H021        -7.5770   -19.6040    10.4130 hc         1 I5Q       0.042200
     12 H031        -9.3350   -17.2250     9.6880 h1         1 I5Q       0.039700
     13 H051       -10.2800   -18.6450    11.4590 h1         1 I5Q       0.029700
     14 H052        -8.7650   -18.5540    12.3670 h1         1 I5Q       0.029700
     15 H041        -7.7790   -16.1770    11.0930 ho         1 I5Q       0.416000
     16 H061       -10.0670   -16.8830    13.1220 ho         1 I5Q       0.410000
@<TRIPOS>BOND
     1     1     2 1   
     2     1     7 1   
     3     1     8 1   
     4     1     9 1   
     5     2     3 1   
     6     2    10 1   
     7     2    11 1   
     8     3     4 1   
     9     3     5 1   
    10     3    12 1   
    11     4     6 1   
    12     4    13 1   
    13     4    14 1   
    14     5    15 1   
    15     6    16 1   
@<TRIPOS>SUBSTRUCTURE
     1 I5Q         1 TEMP              0 ****  ****    0 ROOT
