@<TRIPOS>MOLECULE
I5Q
   16    15     1     0     0
SMALL
No Charge or Current Charge


@<TRIPOS>ATOM
      1 C01         -7.5390   -18.9010     8.3150 c3         1 I5Q      -0.082100
      2 C02         -8.1890   -19.0680     9.7060 c3         1 I5Q      -0.071400
      3 C03         -8.6470   -17.7380    10.3540 c3         1 I5Q       0.171300
      4 C05         -9.4030   -17.9560    11.6930 c3         1 I5Q       0.119600
      5 O04         -7.5140   -16.8990    10.6110 oh         1 I5Q      -0.662000
      6 O06         -9.6990   -16.6880    12.3080 oh         1 I5Q      -0.672000
      7 H012        -7.2750   -19.8800     7.8980 hc         1 I5Q       0.036367
      8 H011        -8.2290   -18.4080     7.6210 hc         1 I5Q       0.036367
      9 H013        -6.6230   -18.3010     8.3780 hc         1 I5Q       0.036367
     10 H022        -9.0580   -19.7290     9.6050 hc         1 I5Q       0.042200
     11 H021        -7.4830   -19.5770    10.3740 hc         1 I5Q       0.042200
     12 H031        -9.3330   -17.2340     9.6590 h1         1 I5Q       0.039700
     13 H051       -10.3310   -18.5090    11.4920 h1         1 I5Q       0.029700
     14 H052        -8.7880   -18.5710    12.3630 h1         1 I5Q       0.029700
     15 H041        -7.8260   -16.2950    11.3250 ho         1 I5Q       0.455000
     16 H061       -10.2330   -16.8740    13.1140 ho         1 I5Q       0.449000
@<TRIPOS>BOND
     1     1     2 1   
     2     1     7 1   
     3     1     8 1   
     4     1     9 1   
     5     2     3 1   
     6     2    10 1   
     7     2    11 1   
     8     3     4 1   
     9     3     5 1   
    10     3    12 1   
    11     4     6 1   
    12     4    13 1   
    13     4    14 1   
    14     5    15 1   
    15     6    16 1   
@<TRIPOS>SUBSTRUCTURE
     1 I5Q         1 TEMP              0 ****  ****    0 ROOT
