@<TRIPOS>MOLECULE
I5R
   35    38     1     0     0
SMALL
bcc


@<TRIPOS>ATOM
      1 O           -1.3970    -3.4110    -0.2240 o          1 I5R      -0.606500
      2 C           -1.6070    -2.2280    -0.0430 c          1 I5R       0.719500
      3 NAL         -2.8380    -1.6750    -0.1850 ns         1 I5R      -0.548400
      4 CAR         -3.1180    -0.3250     0.0020 ca         1 I5R       0.506200
      5 NAK         -4.2760     0.1270    -0.4210 nb         1 I5R      -0.690000
      6 CAE         -4.5650     1.4110    -0.2100 ca         1 I5R       0.396200
      7 CAD         -3.6940     2.2750     0.4270 ca         1 I5R      -0.239300
      8 CAF         -2.4660     1.7910     0.8660 ca         1 I5R      -0.141000
      9 CAQ         -2.1570     0.4550     0.6650 ca         1 I5R       0.005300
     10 N           -1.0190    -0.1790     1.1090 nu         1 I5R      -0.714600
     11 CA          -0.4980    -1.2430     0.2780 c6         1 I5R       0.124500
     12 CB           0.1370    -0.7480    -1.0420 c3         1 I5R      -0.030200
     13 CG           1.2270     0.2340    -0.7870 cc         1 I5R      -0.156400
     14 CD2          2.5430    -0.0480    -0.2930 ca         1 I5R      -0.097800
     15 CE3          3.2230    -1.2260     0.0370 ca         1 I5R      -0.080000
     16 CZ3          4.5240    -1.1410     0.4930 ca         1 I5R      -0.154000
     17 CH2          5.1650     0.1020     0.6270 ca         1 I5R      -0.107000
     18 CZ2          4.5200     1.2810     0.3060 ca         1 I5R      -0.146000
     19 CE2          3.2070     1.1920    -0.1530 ca         1 I5R      -0.048200
     20 NE1          2.3340     2.1670    -0.5380 na         1 I5R      -0.172400
     21 CD1          1.1530     1.5930    -0.9140 cd         1 I5R      -0.107100
     22 H1          -3.5950    -2.2650    -0.5040 hn         1 I5R       0.340500
     23 H2          -5.5300     1.7530    -0.5630 h4         1 I5R       0.024100
     24 H3          -3.9610     3.3120     0.5760 ha         1 I5R       0.142000
     25 H4          -1.7620     2.4400     1.3710 ha         1 I5R       0.137000
     26 H5          -0.3050     0.4320     1.4780 hn         1 I5R       0.417800
     27 H6           0.2520    -1.7820     0.8580 h1         1 I5R       0.100700
     28 H7           0.5160    -1.6150    -1.5910 hc         1 I5R       0.063700
     29 H8          -0.6330    -0.2920    -1.6700 hc         1 I5R       0.063700
     30 H9           2.7410    -2.1900    -0.0690 ha         1 I5R       0.137000
     31 H10          5.0620    -2.0440     0.7520 ha         1 I5R       0.132000
     32 H11          6.1850     0.1370     0.9890 ha         1 I5R       0.130000
     33 H12          5.0170     2.2380     0.4100 ha         1 I5R       0.132000
     34 H13          2.5290     3.1530    -0.5630 hn         1 I5R       0.301700
     35 H14          0.3300     2.2020    -1.2540 h4         1 I5R       0.165000
@<TRIPOS>BOND
     1     1     2 2   
     2     2     3 1   
     3     2    11 1   
     4     3     4 1   
     5     3    22 1   
     6     4     5 ar  
     7     4     9 ar  
     8     5     6 ar  
     9     6     7 ar  
    10     6    23 1   
    11     7     8 ar  
    12     7    24 1   
    13     8     9 ar  
    14     8    25 1   
    15     9    10 1   
    16    10    11 1   
    17    10    26 1   
    18    11    12 1   
    19    11    27 1   
    20    12    13 1   
    21    12    28 1   
    22    12    29 1   
    23    13    14 1   
    24    13    21 2   
    25    14    15 ar  
    26    14    19 ar  
    27    15    16 ar  
    28    15    30 1   
    29    16    17 ar  
    30    16    31 1   
    31    17    18 ar  
    32    17    32 1   
    33    18    19 ar  
    34    18    33 1   
    35    19    20 1   
    36    20    21 1   
    37    20    34 1   
    38    21    35 1   
@<TRIPOS>SUBSTRUCTURE
     1 I5R         1 TEMP              0 ****  ****    0 ROOT
