@<TRIPOS>MOLECULE
I5R
   35    38     1     0     0
SMALL
No Charge or Current Charge


@<TRIPOS>ATOM
      1 O           -1.2980    -3.1870    -0.6860 o          1 I5R      -0.531000
      2 C           -1.5770    -2.0400    -0.3600 c          1 I5R       0.577000
      3 NAL         -2.8910    -1.6230    -0.2930 ns         1 I5R      -0.314900
      4 CAR         -3.3230    -0.3600     0.1180 ca         1 I5R       0.440900
      5 NAK         -4.6570    -0.1640     0.0330 nb         1 I5R      -0.690000
      6 CAE         -5.1100     1.0560     0.4100 ca         1 I5R       0.330900
      7 CAD         -4.2590     2.0860     0.8660 ca         1 I5R      -0.156000
      8 CAF         -2.8690     1.8640     0.9480 ca         1 I5R      -0.123000
      9 CAQ         -2.3810     0.6060     0.5670 ca         1 I5R       0.209000
     10 N           -1.0090     0.2940     0.6180 nu         1 I5R      -0.908200
     11 CA          -0.4680    -0.9730     0.0130 c6         1 I5R       0.124500
     12 CB           0.3700    -0.6340    -1.2540 c3         1 I5R      -0.030200
     13 CG           1.5350     0.2890    -0.9950 cc         1 I5R      -0.156400
     14 CD2          2.7460    -0.0320    -0.2940 ca         1 I5R      -0.097800
     15 CE3          3.1670    -1.2380     0.2880 ca         1 I5R      -0.062000
     16 CZ3          4.4290    -1.2610     0.9190 ca         1 I5R      -0.136000
     17 CH2          5.2330    -0.0970     0.9520 ca         1 I5R      -0.089000
     18 CZ2          4.7810     1.0970     0.3520 ca         1 I5R      -0.128000
     19 CE2          3.5230     1.0920    -0.2670 ca         1 I5R      -0.048200
     20 NE1          2.8930     2.1380    -0.9150 na         1 I5R      -0.222700
     21 CD1          1.6530     1.6250    -1.3670 cd         1 I5R      -0.157100
     22 H1          -3.6080    -2.2890    -0.5410 hn         1 I5R       0.174000
     23 H2          -6.1850     1.2170     0.3430 h4         1 I5R       0.024100
     24 H3          -4.6820     3.0450     1.1530 ha         1 I5R       0.124000
     25 H4          -2.1970     2.6430     1.2990 ha         1 I5R       0.119000
     26 H5          -0.3580     1.0640     0.8010 hn         1 I5R       0.473000
     27 H6           0.1950    -1.4780     0.7320 h1         1 I5R       0.100700
     28 H7           0.7520    -1.5610    -1.6990 hc         1 I5R       0.063700
     29 H8          -0.2830    -0.1880    -2.0150 hc         1 I5R       0.063700
     30 H9           2.5440    -2.1280     0.2540 ha         1 I5R       0.119000
     31 H10          4.7850    -2.1790     1.3810 ha         1 I5R       0.114000
     32 H11          6.2050    -0.1240     1.4400 ha         1 I5R       0.112000
     33 H12          5.3930     1.9960     0.3690 ha         1 I5R       0.114000
     34 H13          3.2490     3.0820    -1.0400 hn         1 I5R       0.352000
     35 H14          0.9440     2.2460    -1.9120 h4         1 I5R       0.215000
@<TRIPOS>BOND
     1     1     2 2   
     2     2     3 1   
     3     2    11 1   
     4     3     4 1   
     5     3    22 1   
     6     4     5 ar  
     7     4     9 ar  
     8     5     6 ar  
     9     6     7 ar  
    10     6    23 1   
    11     7     8 ar  
    12     7    24 1   
    13     8     9 ar  
    14     8    25 1   
    15     9    10 1   
    16    10    11 1   
    17    10    26 1   
    18    11    12 1   
    19    11    27 1   
    20    12    13 1   
    21    12    28 1   
    22    12    29 1   
    23    13    14 1   
    24    13    21 2   
    25    14    15 ar  
    26    14    19 ar  
    27    15    16 ar  
    28    15    30 1   
    29    16    17 ar  
    30    16    31 1   
    31    17    18 ar  
    32    17    32 1   
    33    18    19 ar  
    34    18    33 1   
    35    19    20 1   
    36    20    21 1   
    37    20    34 1   
    38    21    35 1   
@<TRIPOS>SUBSTRUCTURE
     1 I5R         1 TEMP              0 ****  ****    0 ROOT
