@<TRIPOS>MOLECULE
I5S
   50    52     1     0     0
SMALL
bcc


@<TRIPOS>ATOM
      1 CL1          7.3480    -2.9790     0.3780 cl         1 I5S      -0.112400
      2 C2           6.5150    -1.4640     0.5230 ca         1 I5S       0.033400
      3 C3           7.2420    -0.2870     0.5730 ca         1 I5S      -0.124000
      4 C4           6.5640     0.9190     0.6830 ca         1 I5S      -0.103000
      5 C5           5.1770     0.9610     0.7540 ca         1 I5S      -0.085300
      6 C6           4.4520     2.2670     0.9080 c3         1 I5S       0.187700
      7 O7           3.4100     2.3270    -0.0320 os         1 I5S      -0.417600
      8 C8           2.5430     3.4230     0.1570 c3         1 I5S       0.134400
      9 C9           1.3760     3.2850    -0.7930 c3         1 I5S       0.162800
     10 N10          0.5960     2.0990    -0.4960 n7         1 I5S      -0.813200
     11 C13         -0.5360     1.9350    -1.3810 c3         1 I5S       0.156800
     12 C14         -1.3510     0.7260    -0.9500 c3         1 I5S       0.198800
     13 N15         -2.5120     0.5830    -1.8240 n7         1 I5S      -0.819100
     14 S16         -3.2880    -0.8630    -1.8900 sy         1 I5S       1.297200
     15 O17         -2.3130    -1.8570    -2.3030 o          1 I5S      -0.602300
     16 O18         -4.4820    -0.6570    -2.6930 o          1 I5S      -0.602300
     17 C19         -3.7660    -1.2500    -0.2200 ca         1 I5S      -0.305500
     18 C20         -3.1480    -2.3110     0.3910 ca         1 I5S       0.010000
     19 C21         -3.4410    -2.6460     1.7260 ca         1 I5S      -0.161000
     20 C22         -4.3400    -1.9000     2.4320 ca         1 I5S      -0.041000
     21 C23         -4.9830    -0.7990     1.8260 ca         1 I5S      -0.189300
     22 C24         -5.9070    -0.0130     2.5520 ca         1 I5S       0.441200
     23 N25         -6.5350     1.0180     2.0590 nb         1 I5S      -0.664000
     24 C26         -6.2860     1.3390     0.7730 ca         1 I5S       0.417200
     25 C27         -5.4200     0.6580    -0.0370 ca         1 I5S      -0.264300
     26 C28         -4.7180    -0.4550     0.4780 ca         1 I5S       0.069000
     27 C29          4.4700    -0.2380     0.7000 ca         1 I5S      -0.103000
     28 C30          5.1290    -1.4510     0.5850 ca         1 I5S      -0.124000
     29 H3           8.3220    -0.3030     0.5190 ha         1 I5S       0.148000
     30 H4           7.1340     1.8400     0.7120 ha         1 I5S       0.138000
     31 H6C1         4.0510     2.3470     1.9290 h1         1 I5S       0.031200
     32 H6C2         5.1540     3.1030     0.7810 h1         1 I5S       0.031200
     33 H8C1         2.1770     3.4500     1.1930 h1         1 I5S       0.032700
     34 H8C2         3.0610     4.3730    -0.0310 h1         1 I5S       0.032700
     35 H9C1         0.7390     4.1650    -0.6710 h1         1 I5S       0.040700
     36 H9C2         1.7440     3.3100    -1.8310 h1         1 I5S       0.040700
     37 H10          1.1970     1.2880    -0.5780 hn         1 I5S       0.367800
     38 H131        -1.1600     2.8320    -1.3150 h1         1 I5S       0.041700
     39 H132        -0.2550     1.8230    -2.4380 h1         1 I5S       0.041700
     40 H141        -0.7400    -0.1740    -1.0340 h1         1 I5S       0.058700
     41 H142        -1.6450     0.8320     0.0990 h1         1 I5S       0.058700
     42 H15         -3.1530     1.3680    -1.7900 hn         1 I5S       0.427800
     43 H20         -2.4240    -2.9050    -0.1480 ha         1 I5S       0.164000
     44 H21         -2.9440    -3.4910     2.1800 ha         1 I5S       0.144000
     45 H22         -4.5670    -2.1390     3.4630 ha         1 I5S       0.140000
     46 H24         -6.1120    -0.2750     3.5860 h4         1 I5S       0.021100
     47 H26         -6.8260     2.1930     0.3820 h4         1 I5S       0.025100
     48 H27         -5.3230     0.9790    -1.0620 ha         1 I5S       0.153000
     49 H29          3.3880    -0.2360     0.7510 ha         1 I5S       0.138000
     50 H30          4.5670    -2.3750     0.5440 ha         1 I5S       0.148000
@<TRIPOS>BOND
     1     1     2 1   
     2     2     3 ar  
     3     2    28 ar  
     4     3     4 ar  
     5     3    29 1   
     6     4     5 ar  
     7     4    30 1   
     8     5     6 1   
     9     5    27 ar  
    10     6     7 1   
    11     6    31 1   
    12     6    32 1   
    13     7     8 1   
    14     8     9 1   
    15     8    33 1   
    16     8    34 1   
    17     9    10 1   
    18     9    35 1   
    19     9    36 1   
    20    10    11 1   
    21    10    37 1   
    22    11    12 1   
    23    11    38 1   
    24    11    39 1   
    25    12    13 1   
    26    12    40 1   
    27    12    41 1   
    28    13    14 1   
    29    13    42 1   
    30    14    15 2   
    31    14    16 2   
    32    14    17 1   
    33    17    18 ar  
    34    17    26 ar  
    35    18    19 ar  
    36    18    43 1   
    37    19    20 ar  
    38    19    44 1   
    39    20    21 ar  
    40    20    45 1   
    41    21    22 ar  
    42    21    26 ar  
    43    22    23 ar  
    44    22    46 1   
    45    23    24 ar  
    46    24    25 ar  
    47    24    47 1   
    48    25    26 ar  
    49    25    48 1   
    50    27    28 ar  
    51    27    49 1   
    52    28    50 1   
@<TRIPOS>SUBSTRUCTURE
     1 I5S         1 TEMP              0 ****  ****    0 ROOT
