@<TRIPOS>MOLECULE
I5S
   50    52     1     0     0
SMALL
No Charge or Current Charge


@<TRIPOS>ATOM
      1 Cl1          6.1960    -3.2940     1.6610 cl         1 I5S      -0.204000
      2 C2           5.5440    -1.6680     1.4980 ca         1 I5S       0.125000
      3 C3           6.1770    -0.7400     0.6560 ca         1 I5S      -0.106000
      4 C4           5.6560     0.5590     0.5240 ca         1 I5S      -0.085000
      5 C5           4.5000     0.9360     1.2370 ca         1 I5S      -0.085300
      6 C6           3.9330     2.3420     1.0960 c3         1 I5S       0.210900
      7 O7           2.9270     2.3270     0.0710 os         1 I5S      -0.464000
      8 C8           2.2860     3.6000    -0.1570 c3         1 I5S       0.157600
      9 C9           1.2170     3.4220    -1.2670 c3         1 I5S       0.162800
     10 N10          0.2150     2.3970    -0.8900 n7         1 I5S      -0.868400
     11 C13         -0.7430     2.0250    -1.9580 c3         1 I5S       0.156800
     12 C14         -1.7590     0.9580    -1.4710 c3         1 I5S       0.198800
     13 N15         -2.7110     0.6020    -2.5460 n7         1 I5S      -0.874300
     14 S16         -3.8720    -0.5740    -2.2920 sy         1 I5S       1.155600
     15 O17         -3.5740    -1.6290    -3.2640 o          1 I5S      -0.531500
     16 O18         -5.1390     0.1560    -2.3180 o          1 I5S      -0.531500
     17 C19         -3.5280    -1.1590    -0.6050 ca         1 I5S      -0.305500
     18 C20         -2.8280    -2.3830    -0.4980 ca         1 I5S       0.028000
     19 C21         -2.5410    -2.9440     0.7540 ca         1 I5S      -0.143000
     20 C22         -2.9470    -2.2960     1.9260 ca         1 I5S      -0.023000
     21 C23         -3.6350    -1.0740     1.8450 ca         1 I5S      -0.124000
     22 C24         -4.0310    -0.4230     3.0290 ca         1 I5S       0.375900
     23 N25         -4.6810     0.7600     3.0450 nb         1 I5S      -0.664000
     24 C26         -4.9500     1.3340     1.8540 ca         1 I5S       0.351900
     25 C27         -4.5960     0.7590     0.6240 ca         1 I5S      -0.181000
     26 C28         -3.9290    -0.4870     0.5910 ca         1 I5S       0.069000
     27 C29          3.8690    -0.0010     2.0790 ca         1 I5S      -0.085000
     28 C30          4.3900    -1.3010     2.2100 ca         1 I5S      -0.106000
     29 H3           7.0690    -1.0280     0.1050 ha         1 I5S       0.130000
     30 H4           6.1490     1.2730    -0.1330 ha         1 I5S       0.120000
     31 H6C1         3.5040     2.6620     2.0550 h1         1 I5S       0.031200
     32 H6C2         4.7390     3.0410     0.8360 h1         1 I5S       0.031200
     33 H8C1         1.8020     3.9610     0.7600 h1         1 I5S       0.032700
     34 H8C2         3.0190     4.3520    -0.4790 h1         1 I5S       0.032700
     35 H9C1         0.7290     4.3890    -1.4490 h1         1 I5S       0.040700
     36 H9C2         1.7320     3.1330    -2.1930 h1         1 I5S       0.040700
     37 H10          0.7480     1.5600    -0.6200 hn         1 I5S       0.423000
     38 H131        -1.2980     2.9120    -2.2910 h1         1 I5S       0.041700
     39 H132        -0.2050     1.6240    -2.8290 h1         1 I5S       0.041700
     40 H141        -1.1950     0.0710    -1.1490 h1         1 I5S       0.058700
     41 H142        -2.2820     1.3600    -0.5940 h1         1 I5S       0.058700
     42 H15         -3.3030     1.4030    -2.7660 hn         1 I5S       0.483000
     43 H20         -2.5010    -2.9180    -1.3890 ha         1 I5S       0.146000
     44 H21         -2.0040    -3.8880     0.8140 ha         1 I5S       0.126000
     45 H22         -2.7220    -2.7410     2.8930 ha         1 I5S       0.122000
     46 H24         -3.8160    -0.8620     4.0030 h4         1 I5S       0.021100
     47 H26         -5.4630     2.2950     1.8870 h4         1 I5S       0.025100
     48 H27         -4.8390     1.3190    -0.2670 ha         1 I5S       0.135000
     49 H29          2.9730     0.2770     2.6310 ha         1 I5S       0.120000
     50 H30          3.9010    -2.0220     2.8600 ha         1 I5S       0.130000
@<TRIPOS>BOND
     1     1     2 1   
     2     2     3 ar  
     3     2    28 ar  
     4     3     4 ar  
     5     3    29 1   
     6     4     5 ar  
     7     4    30 1   
     8     5     6 1   
     9     5    27 ar  
    10     6     7 1   
    11     6    31 1   
    12     6    32 1   
    13     7     8 1   
    14     8     9 1   
    15     8    33 1   
    16     8    34 1   
    17     9    10 1   
    18     9    35 1   
    19     9    36 1   
    20    10    11 1   
    21    10    37 1   
    22    11    12 1   
    23    11    38 1   
    24    11    39 1   
    25    12    13 1   
    26    12    40 1   
    27    12    41 1   
    28    13    14 1   
    29    13    42 1   
    30    14    15 2   
    31    14    16 2   
    32    14    17 1   
    33    17    18 ar  
    34    17    26 ar  
    35    18    19 ar  
    36    18    43 1   
    37    19    20 ar  
    38    19    44 1   
    39    20    21 ar  
    40    20    45 1   
    41    21    22 ar  
    42    21    26 ar  
    43    22    23 ar  
    44    22    46 1   
    45    23    24 ar  
    46    24    25 ar  
    47    24    47 1   
    48    25    26 ar  
    49    25    48 1   
    50    27    28 ar  
    51    27    49 1   
    52    28    50 1   
@<TRIPOS>SUBSTRUCTURE
     1 I5S         1 TEMP              0 ****  ****    0 ROOT
