@<TRIPOS>MOLECULE
I5T
   52    56     1     0     0
SMALL
abcg2


@<TRIPOS>ATOM
      1 C1          -8.5850     0.2620     0.3370 ca         1 I5T      -0.110000
      2 C2           7.2150     0.7980    -0.4090 ca         1 I5T      -0.163000
      3 C3          -7.8980     0.1870     1.5410 ca         1 I5T      -0.107500
      4 C4          -7.9050     0.0230    -0.8510 ca         1 I5T      -0.107500
      5 C5           6.5250     1.9890    -0.1760 ca         1 I5T      -0.047000
      6 C6           6.5690    -0.4040    -0.2150 ca         1 I5T      -0.016000
      7 C7          -6.5440    -0.1220     1.5530 ca         1 I5T      -0.106500
      8 C8          -6.5530    -0.2890    -0.8360 ca         1 I5T      -0.106500
      9 C9           5.2050     1.9790     0.2310 ca         1 I5T      -0.164000
     10 C10          5.2360    -0.4410     0.2100 ca         1 I5T      -0.267600
     11 C11         -5.8500    -0.3630     0.3680 ca         1 I5T      -0.049300
     12 C12          4.5510     0.7620     0.4220 ca         1 I5T       0.186100
     13 C13          4.5610    -1.7200     0.4800 c          1 I5T       0.595700
     14 C14         -1.1050     0.2290    -0.9810 c          1 I5T       0.638100
     15 C15          3.1990    -1.5930     1.1060 c6         1 I5T      -0.209400
     16 C16          2.1120    -0.4690    -0.8800 c6         1 I5T      -0.115400
     17 C17          1.1880    -0.1200     1.4190 c6         1 I5T      -0.115400
     18 C18         -3.7450    -1.6060    -0.5620 cx         1 I5T      -0.097400
     19 C19          1.2450     0.6930    -1.3480 c6         1 I5T       0.100500
     20 C20          0.3570     1.0360     0.8680 c6         1 I5T       0.100500
     21 C21         -4.4030    -0.6790     0.4250 cx         1 I5T      -0.095400
     22 C22         -3.4540    -0.1490    -0.6150 cx         1 I5T       0.056700
     23 C23          2.4560    -0.3600     0.6090 c6         1 I5T       0.199000
     24 N24          0.0480     0.8210    -0.5370 n          1 I5T      -0.409800
     25 N25         -2.1920     0.3240    -0.1560 ns         1 I5T      -0.484900
     26 O26          5.0840    -2.7950     0.2660 o          1 I5T      -0.518100
     27 O27         -1.1770    -0.3390    -2.0630 o          1 I5T      -0.626100
     28 O28          3.2720     0.8050     0.8210 os         1 I5T      -0.350100
     29 H1          -9.6410     0.5010     0.3230 ha         1 I5T       0.113000
     30 H3          -8.4150     0.3690     2.4740 ha         1 I5T       0.112500
     31 H4          -8.4300     0.0790    -1.7960 ha         1 I5T       0.112500
     32 H2           8.2470     0.8200    -0.7330 ha         1 I5T       0.121000
     33 H5           7.0240     2.9380    -0.3250 ha         1 I5T       0.116000
     34 H6           7.0920    -1.3370    -0.3800 ha         1 I5T       0.132000
     35 H7          -6.0180    -0.1800     2.4980 ha         1 I5T       0.111000
     36 H8          -6.0490    -0.4750    -1.7770 ha         1 I5T       0.111000
     37 H9           4.6700     2.9040     0.4000 ha         1 I5T       0.129000
     38 H21         -4.0000    -0.7220     1.4320 hc         1 I5T       0.083700
     39 H151         2.6110    -2.4930     0.9210 hc         1 I5T       0.083700
     40 H152         3.3470    -1.5220     2.1910 hc         1 I5T       0.083700
     41 H25         -2.2260     1.0690     0.5190 hn         1 I5T       0.310500
     42 H161         1.5810    -1.4100    -1.0450 hc         1 I5T       0.065700
     43 H162         3.0180    -0.5140    -1.4920 hc         1 I5T       0.065700
     44 H191         1.8000     1.6320    -1.2870 h1         1 I5T       0.063700
     45 H192         0.9700     0.5570    -2.3900 h1         1 I5T       0.063700
     46 H171         1.4460     0.0700     2.4640 hc         1 I5T       0.065700
     47 H172         0.5870    -1.0330     1.3980 hc         1 I5T       0.065700
     48 H201        -0.5430     1.1450     1.4670 h1         1 I5T       0.063700
     49 H202         0.9010     1.9780     0.9620 h1         1 I5T       0.063700
     50 H181        -2.9720    -2.2620    -0.1830 hc         1 I5T       0.083200
     51 H182        -4.3530    -2.0310    -1.3510 hc         1 I5T       0.083200
     52 H22         -3.9080     0.4100    -1.4300 h1         1 I5T       0.083700
@<TRIPOS>BOND
     1     1     3 ar  
     2     1     4 ar  
     3     1    29 1   
     4     2     5 ar  
     5     2     6 ar  
     6     2    32 1   
     7     3     7 ar  
     8     3    30 1   
     9     4     8 ar  
    10     4    31 1   
    11     5     9 ar  
    12     5    33 1   
    13     6    10 ar  
    14     6    34 1   
    15     7    11 ar  
    16     7    35 1   
    17     8    11 ar  
    18     8    36 1   
    19     9    12 ar  
    20     9    37 1   
    21    10    12 ar  
    22    10    13 1   
    23    11    21 1   
    24    12    28 1   
    25    13    15 1   
    26    13    26 2   
    27    14    24 1   
    28    14    25 1   
    29    14    27 2   
    30    15    23 1   
    31    15    39 1   
    32    15    40 1   
    33    16    19 1   
    34    16    23 1   
    35    16    42 1   
    36    16    43 1   
    37    17    20 1   
    38    17    23 1   
    39    17    46 1   
    40    17    47 1   
    41    18    21 1   
    42    18    22 1   
    43    18    50 1   
    44    18    51 1   
    45    19    24 1   
    46    19    44 1   
    47    19    45 1   
    48    20    24 1   
    49    20    48 1   
    50    20    49 1   
    51    21    22 1   
    52    21    38 1   
    53    22    25 1   
    54    22    52 1   
    55    23    28 1   
    56    25    41 1   
@<TRIPOS>SUBSTRUCTURE
     1 I5T         1 TEMP              0 ****  ****    0 ROOT
