@<TRIPOS>MOLECULE
I5T
   52    56     1     0     0
SMALL
No Charge or Current Charge


@<TRIPOS>ATOM
      1 C1          -8.1880     1.8780     0.4900 ca         1 I5T      -0.110000
      2 C2           6.4590     2.3510    -0.5530 ca         1 I5T      -0.163000
      3 C3          -7.6540     1.2920     1.6490 ca         1 I5T      -0.107500
      4 C4          -7.5860     1.6350    -0.7560 ca         1 I5T      -0.107500
      5 C5           5.2550     3.0680    -0.4590 ca         1 I5T      -0.047000
      6 C6           6.5060     0.9930    -0.1940 ca         1 I5T      -0.016000
      7 C7          -6.5200     0.4660     1.5620 ca         1 I5T      -0.106500
      8 C8          -6.4520     0.8090    -0.8430 ca         1 I5T      -0.106500
      9 C9           4.0920     2.4200    -0.0110 ca         1 I5T      -0.164000
     10 C10          5.3390     0.3450     0.2620 ca         1 I5T      -0.267600
     11 C11         -5.9070     0.2160     0.3170 ca         1 I5T      -0.049300
     12 C12          4.1290     1.0620     0.3370 ca         1 I5T       0.186100
     13 C13          5.3610    -1.0920     0.6750 c          1 I5T       0.595700
     14 C14         -1.1400    -0.7870    -1.1310 c          1 I5T       0.638100
     15 C15          4.1090    -1.6010     1.3730 c6         1 I5T      -0.209400
     16 C16          2.6240    -1.4880    -0.6980 c6         1 I5T      -0.115400
     17 C17          1.5950    -1.3860     1.5570 c6         1 I5T      -0.115400
     18 C18         -4.4650    -1.6510    -0.8800 cx         1 I5T      -0.097400
     19 C19          1.3490    -0.8950    -1.3380 c6         1 I5T       0.100500
     20 C20          0.2890    -0.8020     0.9700 c6         1 I5T       0.100500
     21 C21         -4.6890    -0.6750     0.2530 cx         1 I5T      -0.095400
     22 C22         -3.5750    -0.4420    -0.7420 cx         1 I5T       0.056700
     23 C23          2.8430    -0.9810     0.7470 c6         1 I5T       0.199000
     24 N24          0.1110    -0.9860    -0.5070 n          1 I5T      -0.409800
     25 N25         -2.2240    -0.6500    -0.2950 ns         1 I5T      -0.484900
     26 O26          6.3040    -1.8340     0.4290 o          1 I5T      -0.518100
     27 O27         -1.2600    -0.7400    -2.3460 o          1 I5T      -0.626100
     28 O28          2.9650     0.4580     0.7600 os         1 I5T      -0.350100
     29 H1          -9.0650     2.5170     0.5560 ha         1 I5T       0.113000
     30 H3          -8.1180     1.4790     2.6150 ha         1 I5T       0.112500
     31 H4          -7.9990     2.0870    -1.6550 ha         1 I5T       0.112500
     32 H2           7.3610     2.8500    -0.9010 ha         1 I5T       0.121000
     33 H5           5.2220     4.1200    -0.7330 ha         1 I5T       0.116000
     34 H6           7.4490     0.4520    -0.2630 ha         1 I5T       0.132000
     35 H7          -6.1170     0.0200     2.4690 ha         1 I5T       0.111000
     36 H8          -6.0030     0.6350    -1.8170 ha         1 I5T       0.111000
     37 H9           3.1560     2.9680     0.0590 ha         1 I5T       0.129000
     38 H21         -4.3860    -1.0230     1.2380 hc         1 I5T       0.083700
     39 H151         4.1000    -2.6980     1.4030 hc         1 I5T       0.083700
     40 H152         4.1640    -1.2210     2.4010 hc         1 I5T       0.083700
     41 H25         -2.0360    -0.6960     0.6970 hn         1 I5T       0.310500
     42 H161         2.5430    -2.5840    -0.6940 hc         1 I5T       0.065700
     43 H162         3.4860    -1.2510    -1.3350 hc         1 I5T       0.065700
     44 H191         1.5290     0.1670    -1.5640 h1         1 I5T       0.063700
     45 H192         1.1830    -1.3990    -2.3010 h1         1 I5T       0.063700
     46 H171         1.7000    -1.0620     2.6020 hc         1 I5T       0.065700
     47 H172         1.5150    -2.4810     1.5850 hc         1 I5T       0.065700
     48 H201        -0.5480    -1.2680     1.5100 h1         1 I5T       0.063700
     49 H202         0.2540     0.2750     1.1870 h1         1 I5T       0.063700
     50 H181        -4.0450    -2.6230    -0.6350 hc         1 I5T       0.083200
     51 H182        -5.1770    -1.6620    -1.7010 hc         1 I5T       0.083200
     52 H22         -3.6860     0.3670    -1.4670 h1         1 I5T       0.083700
@<TRIPOS>BOND
     1     1     3 ar  
     2     1     4 ar  
     3     1    29 1   
     4     2     5 ar  
     5     2     6 ar  
     6     2    32 1   
     7     3     7 ar  
     8     3    30 1   
     9     4     8 ar  
    10     4    31 1   
    11     5     9 ar  
    12     5    33 1   
    13     6    10 ar  
    14     6    34 1   
    15     7    11 ar  
    16     7    35 1   
    17     8    11 ar  
    18     8    36 1   
    19     9    12 ar  
    20     9    37 1   
    21    10    12 ar  
    22    10    13 1   
    23    11    21 1   
    24    12    28 1   
    25    13    15 1   
    26    13    26 2   
    27    14    24 1   
    28    14    25 1   
    29    14    27 2   
    30    15    23 1   
    31    15    39 1   
    32    15    40 1   
    33    16    19 1   
    34    16    23 1   
    35    16    42 1   
    36    16    43 1   
    37    17    20 1   
    38    17    23 1   
    39    17    46 1   
    40    17    47 1   
    41    18    21 1   
    42    18    22 1   
    43    18    50 1   
    44    18    51 1   
    45    19    24 1   
    46    19    44 1   
    47    19    45 1   
    48    20    24 1   
    49    20    48 1   
    50    20    49 1   
    51    21    22 1   
    52    21    38 1   
    53    22    25 1   
    54    22    52 1   
    55    23    28 1   
    56    25    41 1   
@<TRIPOS>SUBSTRUCTURE
     1 I5T         1 TEMP              0 ****  ****    0 ROOT
