@<TRIPOS>MOLECULE
I5U
   65    68     1     0     0
SMALL
abcg2


@<TRIPOS>ATOM
      1 N26         -8.4800     1.1220     2.5190 nv         1 I5U      -1.029200
      2 C26         -7.4700     0.6980     1.7210 ce         1 I5U       0.739800
      3 C25         -7.8500     0.5570     0.3020 cc         1 I5U      -0.341900
      4 S21         -7.1770    -0.6570    -0.7180 ss         1 I5U       0.281000
      5 C22         -8.1710    -0.1910    -2.0260 cc         1 I5U      -0.250000
      6 C23         -8.9760     0.8610    -1.7060 cd         1 I5U      -0.141000
      7 C24         -8.7970     1.2850    -0.3660 cd         1 I5U      -0.106000
      8 N27         -6.3150     0.4680     2.2280 nf         1 I5U      -0.688100
      9 C31         -5.1870     0.2660     1.4410 ca         1 I5U       0.165400
     10 C32         -4.7140     1.2440     0.5590 ca         1 I5U      -0.138000
     11 C33         -3.5590     1.0180    -0.1690 ca         1 I5U      -0.102000
     12 C34         -2.8520    -0.1720    -0.0380 ca         1 I5U      -0.104000
     13 C36         -4.4520    -0.9090     1.5910 ca         1 I5U      -0.118000
     14 C35         -3.2990    -1.1450     0.8490 ca         1 I5U      -0.083300
     15 C37         -2.5950    -2.4700     1.0070 c3         1 I5U       0.219900
     16 O38         -1.2580    -2.3730     0.5960 os         1 I5U      -0.442000
     17 C20         -0.7380    -3.4380    -0.1700 c3         1 I5U       0.189300
     18 C21         -0.1380    -4.5350     0.7030 c3         1 I5U       0.121800
     19 N22         -1.1660    -5.2050     1.4810 n8         1 I5U      -0.998200
     20 C19          0.2710    -2.8750    -1.1510 c3         1 I5U       0.160600
     21 O18          1.4000    -2.4010    -0.4640 os         1 I5U      -0.438000
     22 C17          2.4170    -1.9520    -1.3230 c3         1 I5U       0.203900
     23 C15          3.6680    -1.7050    -0.5270 ca         1 I5U      -0.056300
     24 C14          4.1270    -2.6660     0.3670 ca         1 I5U      -0.118000
     25 C13          5.3020    -2.4360     1.0680 ca         1 I5U      -0.085000
     26 C12          6.0180    -1.2660     0.8830 ca         1 I5U      -0.174000
     27 C16          4.3750    -0.5220    -0.7100 ca         1 I5U      -0.126000
     28 C11          5.5640    -0.2940    -0.0130 ca         1 I5U       0.315000
     29 N07          6.3550     0.8430    -0.1540 nu         1 I5U      -0.920200
     30 C06          6.1330     1.9860    -0.8760 ce         1 I5U       0.717800
     31 N06          5.0310     2.2270    -1.4700 n2         1 I5U      -0.822100
     32 C05          7.2890     2.9050    -0.8920 cc         1 I5U      -0.343900
     33 S01          8.9170     2.3380    -0.9590 ss         1 I5U       0.231000
     34 C02          9.5330     3.9320    -0.9790 cc         1 I5U      -0.234000
     35 C03          8.5360     4.8600    -0.9410 cd         1 I5U      -0.134000
     36 C04          7.2470     4.2710    -0.8940 cd         1 I5U      -0.099000
     37 H261        -9.4300     0.9190     2.2590 hn         1 I5U       0.478000
     38 H262        -8.2990     1.1460     3.5100 hn         1 I5U       0.478000
     39 H24         -9.3410     2.1060     0.0810 ha         1 I5U       0.138000
     40 H22         -8.1020    -0.7120    -2.9680 h4         1 I5U       0.151000
     41 H23         -9.6700     1.3160    -2.3970 ha         1 I5U       0.135000
     42 H32         -5.2540     2.1770     0.4520 ha         1 I5U       0.116000
     43 H36         -4.8030    -1.6560     2.2950 ha         1 I5U       0.118000
     44 H33         -3.2010     1.7800    -0.8500 ha         1 I5U       0.109000
     45 H34         -1.9530    -0.3270    -0.6180 ha         1 I5U       0.123000
     46 H371        -2.6650    -2.8000     2.0500 h1         1 I5U       0.041200
     47 H372        -3.1310    -3.2250     0.4180 h1         1 I5U       0.041200
     48 H20         -1.5380    -3.8810    -0.7850 h1         1 I5U       0.027700
     49 H211         0.4330    -5.2140     0.0520 h1         1 I5U       0.045700
     50 H212         0.5820    -4.0880     1.3910 h1         1 I5U       0.045700
     51 H191         0.5490    -3.6680    -1.8600 h1         1 I5U       0.026200
     52 H192        -0.2010    -2.0750    -1.7390 h1         1 I5U       0.026200
     53 H221        -1.7590    -5.7450     0.8630 hn         1 I5U       0.390000
     54 H222        -0.7330    -5.8770     2.1010 hn         1 I5U       0.390000
     55 H171         2.6190    -2.7070    -2.0980 h1         1 I5U       0.028700
     56 H172         2.1160    -1.0370    -1.8510 h1         1 I5U       0.028700
     57 H14          3.5770    -3.5870     0.5160 ha         1 I5U       0.119000
     58 H16          3.9990     0.2310    -1.3860 ha         1 I5U       0.152000
     59 H13          5.6710    -3.1760     1.7660 ha         1 I5U       0.110000
     60 H12          6.9380    -1.1060     1.4330 ha         1 I5U       0.106000
     61 H07          7.1660     0.8550     0.4450 hn         1 I5U       0.493000
     62 H06          5.0970     3.0890    -1.9990 hn         1 I5U       0.394400
     63 H04          6.3280     4.8390    -0.8430 ha         1 I5U       0.142000
     64 H02         10.5980     4.1010    -1.0250 h4         1 I5U       0.154000
     65 H03          8.7130     5.9250    -0.9430 ha         1 I5U       0.140000
@<TRIPOS>BOND
     1     1     2 1   
     2     1    37 1   
     3     1    38 1   
     4     2     3 1   
     5     2     8 2   
     6     3     4 1   
     7     3     7 2   
     8     4     5 1   
     9     5     6 2   
    10     5    40 1   
    11     6     7 1   
    12     6    41 1   
    13     7    39 1   
    14     8     9 1   
    15     9    10 ar  
    16     9    13 ar  
    17    10    11 ar  
    18    10    42 1   
    19    11    12 ar  
    20    11    44 1   
    21    12    14 ar  
    22    12    45 1   
    23    13    14 ar  
    24    13    43 1   
    25    14    15 1   
    26    15    16 1   
    27    15    46 1   
    28    15    47 1   
    29    16    17 1   
    30    17    18 1   
    31    17    20 1   
    32    17    48 1   
    33    18    19 1   
    34    18    49 1   
    35    18    50 1   
    36    19    53 1   
    37    19    54 1   
    38    20    21 1   
    39    20    51 1   
    40    20    52 1   
    41    21    22 1   
    42    22    23 1   
    43    22    55 1   
    44    22    56 1   
    45    23    24 ar  
    46    23    27 ar  
    47    24    25 ar  
    48    24    57 1   
    49    25    26 ar  
    50    25    59 1   
    51    26    28 ar  
    52    26    60 1   
    53    27    28 ar  
    54    27    58 1   
    55    28    29 1   
    56    29    30 1   
    57    29    61 1   
    58    30    31 2   
    59    30    32 1   
    60    31    62 1   
    61    32    33 1   
    62    32    36 2   
    63    33    34 1   
    64    34    35 2   
    65    34    64 1   
    66    35    36 1   
    67    35    65 1   
    68    36    63 1   
@<TRIPOS>SUBSTRUCTURE
     1 I5U         1 TEMP              0 ****  ****    0 ROOT
