@<TRIPOS>MOLECULE
I5U
   65    68     1     0     0
SMALL
No Charge or Current Charge


@<TRIPOS>ATOM
      1 N26         -4.4880     3.2100    -0.4970 nv         1 I5U      -1.029200
      2 C26         -3.7450     2.0960    -0.3750 ce         1 I5U       0.739800
      3 C25         -2.5440     1.9880    -1.1830 cc         1 I5U      -0.341900
      4 S21         -1.7530     0.4260    -1.3930 ss         1 I5U       0.281000
      5 C22         -0.5280     1.1380    -2.4370 cc         1 I5U      -0.250000
      6 C23         -0.7220     2.4880    -2.5690 cd         1 I5U      -0.141000
      7 C24         -1.8530     2.9700    -1.8610 cd         1 I5U      -0.106000
      8 N27         -4.3570     1.2160     0.3430 nf         1 I5U      -0.688100
      9 C31         -3.7340     0.5650     1.4290 ca         1 I5U       0.165400
     10 C32         -3.4290     1.2830     2.5980 ca         1 I5U      -0.138000
     11 C33         -2.8000     0.6380     3.6760 ca         1 I5U      -0.102000
     12 C34         -2.4710    -0.7250     3.5850 ca         1 I5U      -0.104000
     13 C36         -3.4200    -0.8030     1.3470 ca         1 I5U      -0.118000
     14 C35         -2.7770    -1.4550     2.4180 ca         1 I5U      -0.083300
     15 C37         -2.4080    -2.9320     2.3130 c3         1 I5U       0.219900
     16 O38         -1.5550    -3.1050     1.1650 os         1 I5U      -0.442000
     17 C20         -1.1850    -4.4660     0.8150 c3         1 I5U       0.189300
     18 C21         -0.2500    -5.1010     1.9010 c3         1 I5U       0.121800
     19 N22         -0.9510    -5.6570     3.0950 n8         1 I5U      -0.998200
     20 C19         -0.5000    -4.4080    -0.5780 c3         1 I5U       0.160600
     21 O18          0.7500    -3.6950    -0.4810 os         1 I5U      -0.438000
     22 C17          1.4600    -3.5650    -1.7230 c3         1 I5U       0.203900
     23 C15          2.6660    -2.6580    -1.5060 ca         1 I5U      -0.056300
     24 C14          3.9750    -3.1640    -1.6260 ca         1 I5U      -0.118000
     25 C13          5.0800    -2.3130    -1.4540 ca         1 I5U      -0.085000
     26 C12          4.8800    -0.9510    -1.1680 ca         1 I5U      -0.174000
     27 C16          2.4780    -1.2950    -1.2030 ca         1 I5U      -0.126000
     28 C11          3.5800    -0.4350    -1.0310 ca         1 I5U       0.315000
     29 N07          3.4290     0.9300    -0.7840 nu         1 I5U      -0.920200
     30 C06          2.3580     1.6770    -0.3570 ce         1 I5U       0.717800
     31 N06          1.4920     1.2050     0.4460 n2         1 I5U      -0.822100
     32 C05          2.2440     3.0490    -0.8230 cc         1 I5U      -0.343900
     33 S01          3.2560     3.6500    -2.1430 ss         1 I5U       0.231000
     34 C02          2.4600     5.2170    -2.1070 cc         1 I5U      -0.234000
     35 C03          1.4880     5.2500    -1.1400 cd         1 I5U      -0.134000
     36 C04          1.3620     4.0320    -0.4210 cd         1 I5U      -0.099000
     37 H261        -4.3660     3.6910    -1.3760 hn         1 I5U       0.478000
     38 H262        -5.4430     3.0690    -0.1990 hn         1 I5U       0.478000
     39 H24         -2.1400     4.0190    -1.8600 ha         1 I5U       0.138000
     40 H22          0.2460     0.5120    -2.8590 h4         1 I5U       0.151000
     41 H23         -0.0680     3.1270    -3.1560 ha         1 I5U       0.135000
     42 H32         -3.6780     2.3380     2.6690 ha         1 I5U       0.116000
     43 H36         -3.6630    -1.3570     0.4430 ha         1 I5U       0.118000
     44 H33         -2.5650     1.1950     4.5810 ha         1 I5U       0.109000
     45 H34         -1.9750    -1.2120     4.4220 ha         1 I5U       0.123000
     46 H371        -1.8980    -3.2370     3.2340 h1         1 I5U       0.041200
     47 H372        -3.3260    -3.5270     2.2120 h1         1 I5U       0.041200
     48 H20         -2.0830    -5.0880     0.7090 h1         1 I5U       0.027700
     49 H211         0.3160    -5.9220     1.4390 h1         1 I5U       0.045700
     50 H212         0.4770    -4.3470     2.2340 h1         1 I5U       0.045700
     51 H191        -0.3280    -5.4330    -0.9330 h1         1 I5U       0.026200
     52 H192        -1.1740    -3.9140    -1.2900 h1         1 I5U       0.026200
     53 H221        -1.5360    -6.4510     2.8070 hn         1 I5U       0.390000
     54 H222        -0.2590    -6.0850     3.7240 hn         1 I5U       0.390000
     55 H171         1.7870    -4.5490    -2.0840 h1         1 I5U       0.028700
     56 H172         0.8130    -3.1200    -2.4920 h1         1 I5U       0.028700
     57 H14          4.1370    -4.2150    -1.8570 ha         1 I5U       0.119000
     58 H16          1.4690    -0.9080    -1.1170 ha         1 I5U       0.152000
     59 H13          6.0900    -2.7080    -1.5480 ha         1 I5U       0.110000
     60 H12          5.7410    -0.3000    -1.0470 ha         1 I5U       0.106000
     61 H07          4.2440     1.4940    -0.9870 hn         1 I5U       0.493000
     62 H06          0.7280     1.8870     0.4800 hn         1 I5U       0.394400
     63 H04          0.6250     3.9000     0.3690 ha         1 I5U       0.142000
     64 H02          2.7660     5.9900    -2.8010 h4         1 I5U       0.154000
     65 H03          0.8680     6.1220    -0.9470 ha         1 I5U       0.140000
@<TRIPOS>BOND
     1     1     2 1   
     2     1    37 1   
     3     1    38 1   
     4     2     3 1   
     5     2     8 2   
     6     3     4 1   
     7     3     7 2   
     8     4     5 1   
     9     5     6 2   
    10     5    40 1   
    11     6     7 1   
    12     6    41 1   
    13     7    39 1   
    14     8     9 1   
    15     9    10 ar  
    16     9    13 ar  
    17    10    11 ar  
    18    10    42 1   
    19    11    12 ar  
    20    11    44 1   
    21    12    14 ar  
    22    12    45 1   
    23    13    14 ar  
    24    13    43 1   
    25    14    15 1   
    26    15    16 1   
    27    15    46 1   
    28    15    47 1   
    29    16    17 1   
    30    17    18 1   
    31    17    20 1   
    32    17    48 1   
    33    18    19 1   
    34    18    49 1   
    35    18    50 1   
    36    19    53 1   
    37    19    54 1   
    38    20    21 1   
    39    20    51 1   
    40    20    52 1   
    41    21    22 1   
    42    22    23 1   
    43    22    55 1   
    44    22    56 1   
    45    23    24 ar  
    46    23    27 ar  
    47    24    25 ar  
    48    24    57 1   
    49    25    26 ar  
    50    25    59 1   
    51    26    28 ar  
    52    26    60 1   
    53    27    28 ar  
    54    27    58 1   
    55    28    29 1   
    56    29    30 1   
    57    29    61 1   
    58    30    31 2   
    59    30    32 1   
    60    31    62 1   
    61    32    33 1   
    62    32    36 2   
    63    33    34 1   
    64    34    35 2   
    65    34    64 1   
    66    35    36 1   
    67    35    65 1   
    68    36    63 1   
@<TRIPOS>SUBSTRUCTURE
     1 I5U         1 TEMP              0 ****  ****    0 ROOT
