@<TRIPOS>MOLECULE
I5W
   42    44     1     0     0
SMALL
bcc


@<TRIPOS>ATOM
      1 C11          1.6680    -0.3700     0.2780 ca         1 I5W      -0.092000
      2 C12          0.5700    -0.9190    -0.3730 cp         1 I5W      -0.146000
      3 C13         -0.7640    -0.9530     0.2770 cp         1 I5W      -0.033000
      4 C14         -1.7620    -0.0940    -0.1750 ca         1 I5W      -0.111000
      5 C15         -3.0350    -0.0800     0.3940 cp         1 I5W      -0.052000
      6 C16         -4.0760     0.8450    -0.0980 cp         1 I5W      -0.022000
      7 C17         -5.4160     0.4540    -0.1410 ca         1 I5W      -0.119000
      8 C18         -6.3950     1.3220    -0.6020 ca         1 I5W      -0.131500
      9 C19         -6.0540     2.5980    -1.0310 ca         1 I5W      -0.133000
     10 C20         -4.7240     2.9980    -0.9940 ca         1 I5W      -0.131500
     11 C21         -3.7460     2.1310    -0.5310 ca         1 I5W      -0.119000
     12 C22         -3.2870    -0.9650     1.4400 ca         1 I5W      -0.118000
     13 C23         -2.3020    -1.8290     1.8890 ca         1 I5W      -0.140000
     14 C02          0.7440    -1.4510    -1.6530 ca         1 I5W       0.117100
     15 C03          2.0050    -1.4180    -2.2500 ca         1 I5W      -0.169000
     16 C04          3.0790    -0.8670    -1.5810 ca         1 I5W      -0.099000
     17 C05          2.9380    -0.3290    -0.2970 ca         1 I5W      -0.031800
     18 C06          4.0410     0.2610     0.4590 ce         1 I5W      -0.187200
     19 C07          5.3240     0.3380     0.0950 cf         1 I5W      -0.165200
     20 C08          6.3890     0.9720     0.9580 c          1 I5W       0.905800
     21 O09          7.5420     0.9700     0.4770 o          1 I5W      -0.828800
     22 O10          6.0440     1.4400     2.0630 o          1 I5W      -0.828800
     23 C24         -1.0300    -1.8470     1.3230 ca         1 I5W      -0.048300
     24 C25          0.0130    -2.7990     1.8290 c3         1 I5W      -0.049800
     25 H111         1.5240     0.0400     1.2710 ha         1 I5W       0.134000
     26 H141        -1.5390     0.5810    -0.9940 ha         1 I5W       0.141000
     27 H171        -5.6970    -0.5430     0.1720 ha         1 I5W       0.135000
     28 H181        -7.4270     0.9970    -0.6320 ha         1 I5W       0.126500
     29 H191        -6.8180     3.2760    -1.3900 ha         1 I5W       0.125000
     30 H201        -4.4470     3.9920    -1.3190 ha         1 I5W       0.126500
     31 H211        -2.7170     2.4670    -0.4900 ha         1 I5W       0.135000
     32 H221        -4.2560    -0.9750     1.9230 ha         1 I5W       0.125000
     33 H231        -2.5260    -2.5080     2.7040 ha         1 I5W       0.126000
     34 H011        -1.0780    -2.0080    -1.8340 ho         1 I5W       0.423000
     35 H031         2.1350    -1.8330    -3.2410 ha         1 I5W       0.132000
     36 H041         4.0430    -0.8600    -2.0740 ha         1 I5W       0.139000
     37 H061         3.7680     0.6780     1.4240 ha         1 I5W       0.140000
     38 H071         5.6530    -0.0690    -0.8570 ha         1 I5W       0.092000
     39 H251         0.7690    -2.2850     2.4260 hc         1 I5W       0.048700
     40 H252        -0.4340    -3.5670     2.4580 hc         1 I5W       0.048700
     41 H253         0.5400    -3.2930     1.0120 hc         1 I5W       0.048700
     42 O01         -0.2620    -2.0140    -2.3500 oh         1 I5W      -0.511100
@<TRIPOS>BOND
     1     1     2 ar  
     2     1    17 ar  
     3     1    25 1   
     4     2     3 1   
     5     2    14 ar  
     6     3     4 ar  
     7     3    23 ar  
     8     4     5 ar  
     9     4    26 1   
    10     5     6 1   
    11     5    12 ar  
    12     6     7 ar  
    13     6    11 ar  
    14     7     8 ar  
    15     7    27 1   
    16     8     9 ar  
    17     8    28 1   
    18     9    10 ar  
    19     9    29 1   
    20    10    11 ar  
    21    10    30 1   
    22    11    31 1   
    23    12    13 ar  
    24    12    32 1   
    25    13    23 ar  
    26    13    33 1   
    27    14    15 ar  
    28    14    42 1   
    29    15    16 ar  
    30    15    35 1   
    31    16    17 ar  
    32    16    36 1   
    33    17    18 1   
    34    18    19 2   
    35    18    37 1   
    36    19    20 1   
    37    19    38 1   
    38    20    21 1   
    39    20    22 1   
    40    23    24 1   
    41    24    39 1   
    42    24    40 1   
    43    24    41 1   
    44    34    42 1   
@<TRIPOS>SUBSTRUCTURE
     1 I5W         1 TEMP              0 ****  ****    0 ROOT
