@<TRIPOS>MOLECULE
I5W
   42    44     1     0     0
SMALL
No Charge or Current Charge


@<TRIPOS>ATOM
      1 C11          1.7190    -0.4240     0.3120 ca         1 I5W      -0.074000
      2 C12          0.5840    -0.8960    -0.3910 cp         1 I5W      -0.146000
      3 C13         -0.7520    -0.9320     0.2770 cp         1 I5W      -0.033000
      4 C14         -1.7890    -0.0910    -0.1910 ca         1 I5W      -0.093000
      5 C15         -3.0770    -0.0740     0.3950 cp         1 I5W      -0.052000
      6 C16         -4.1560     0.8290    -0.1200 cp         1 I5W      -0.022000
      7 C17         -5.5150     0.4220    -0.1190 ca         1 I5W      -0.101000
      8 C18         -6.5280     1.2680    -0.6040 ca         1 I5W      -0.113500
      9 C19         -6.2030     2.5410    -1.0980 ca         1 I5W      -0.115000
     10 C20         -4.8660     2.9670    -1.1090 ca         1 I5W      -0.113500
     11 C21         -3.8530     2.1200    -0.6250 ca         1 I5W      -0.101000
     12 C22         -3.3060    -0.9410     1.4900 ca         1 I5W      -0.100000
     13 C23         -2.2920    -1.7840     1.9730 ca         1 I5W      -0.122000
     14 C02          0.7530    -1.3180    -1.7320 ca         1 I5W       0.117100
     15 C03          2.0160    -1.2680    -2.3410 ca         1 I5W      -0.151000
     16 C04          3.1310    -0.7980    -1.6270 ca         1 I5W      -0.081000
     17 C05          2.9920    -0.3710    -0.2900 ca         1 I5W      -0.031800
     18 C06          4.1540     0.1340     0.4980 ce         1 I5W      -0.237200
     19 C07          5.4640     0.2740     0.1210 cf         1 I5W      -0.215200
     20 C08          6.5650     0.7940     0.9880 c          1 I5W       0.695200
     21 O09          7.6830     0.8560     0.5010 o          1 I5W      -0.723500
     22 O10          6.3090     1.1320     2.1340 o          1 I5W      -0.723500
     23 C24         -1.0170    -1.7910     1.3770 ca         1 I5W      -0.048300
     24 C25          0.0440    -2.7390     1.9270 c3         1 I5W      -0.049800
     25 H111         1.5990    -0.0910     1.3400 ha         1 I5W       0.116000
     26 H141        -1.5820     0.5610    -1.0360 ha         1 I5W       0.123000
     27 H171        -5.7860    -0.5650     0.2470 ha         1 I5W       0.117000
     28 H181        -7.5630     0.9350    -0.5970 ha         1 I5W       0.108500
     29 H191        -6.9870     3.1960    -1.4730 ha         1 I5W       0.107000
     30 H201        -4.6130     3.9540    -1.4890 ha         1 I5W       0.108500
     31 H211        -2.8260     2.4750    -0.6300 ha         1 I5W       0.117000
     32 H221        -4.2760    -0.9520     1.9810 ha         1 I5W       0.107000
     33 H231        -2.5030    -2.4360     2.8180 ha         1 I5W       0.108000
     34 H011        -1.0830    -1.7950    -1.8520 ho         1 I5W       0.462000
     35 H031         2.1340    -1.5980    -3.3700 ha         1 I5W       0.114000
     36 H041         4.0970    -0.7700    -2.1210 ha         1 I5W       0.121000
     37 H061         3.8960     0.4290     1.5180 ha         1 I5W       0.190000
     38 H071         5.7670    -0.0070    -0.8840 ha         1 I5W       0.142000
     39 H251         0.7630    -2.2010     2.5560 hc         1 I5W       0.048700
     40 H252        -0.4000    -3.5350     2.5380 hc         1 I5W       0.048700
     41 H253         0.6020    -3.2270     1.1190 hc         1 I5W       0.048700
     42 O01         -0.3030    -1.7970    -2.4470 oh         1 I5W      -0.550100
@<TRIPOS>BOND
     1     1     2 ar  
     2     1    17 ar  
     3     1    25 1   
     4     2     3 1   
     5     2    14 ar  
     6     3     4 ar  
     7     3    23 ar  
     8     4     5 ar  
     9     4    26 1   
    10     5     6 1   
    11     5    12 ar  
    12     6     7 ar  
    13     6    11 ar  
    14     7     8 ar  
    15     7    27 1   
    16     8     9 ar  
    17     8    28 1   
    18     9    10 ar  
    19     9    29 1   
    20    10    11 ar  
    21    10    30 1   
    22    11    31 1   
    23    12    13 ar  
    24    12    32 1   
    25    13    23 ar  
    26    13    33 1   
    27    14    15 ar  
    28    14    42 1   
    29    15    16 ar  
    30    15    35 1   
    31    16    17 ar  
    32    16    36 1   
    33    17    18 1   
    34    18    19 2   
    35    18    37 1   
    36    19    20 1   
    37    19    38 1   
    38    20    21 1   
    39    20    22 1   
    40    23    24 1   
    41    24    39 1   
    42    24    40 1   
    43    24    41 1   
    44    34    42 1   
@<TRIPOS>SUBSTRUCTURE
     1 I5W         1 TEMP              0 ****  ****    0 ROOT
