@<TRIPOS>MOLECULE
I5X
   58    61     1     0     0
SMALL
No Charge or Current Charge


@<TRIPOS>ATOM
      1 C10         -6.7990     8.0600    49.2080 c3         1 I5X       0.097400
      2 C13         -3.0750     8.5400    50.0090 cc         1 I5X      -0.272600
      3 C14         -2.7560     7.6860    51.0600 cd         1 I5X      -0.022300
      4 C21         -0.4630     7.1220    52.2840 c          1 I5X       0.619700
      5 C27         -3.6910     6.7730    51.8310 c3         1 I5X      -0.040800
      6 C1          -8.5850    11.8170    52.0030 ca         1 I5X      -0.118000
      7 C12         -4.3830     8.7640    49.3380 c          1 I5X       0.635700
      8 C15         -1.3550     7.8230    51.3090 cd         1 I5X      -0.269600
      9 C16         -0.8370     8.7470    50.4430 cc         1 I5X      -0.085300
     10 C18          0.6100     9.1630    50.3430 c6         1 I5X      -0.017100
     11 C19          1.5460     8.0620    50.9290 c6         1 I5X      -0.031000
     12 C2          -9.5470    12.8180    51.7540 ca         1 I5X      -0.093000
     13 C20          0.9960     7.6140    52.3160 c6         1 I5X      -0.175400
     14 C22         -7.5670     6.7460    49.4980 c3         1 I5X      -0.086400
     15 C23         -6.9090     5.4690    48.9220 c3         1 I5X       0.055600
     16 C3         -10.2040    12.8780    50.5010 ca         1 I5X      -0.136000
     17 C4          -9.9040    11.9390    49.4880 ca         1 I5X      -0.047000
     18 C5          -8.9440    10.9530    49.7600 ca         1 I5X       0.070400
     19 C6          -8.3190    10.9080    50.9730 ca         1 I5X      -0.078200
     20 C8          -7.5790     9.2800    49.6660 cc         1 I5X       0.399800
     21 N11         -5.4360     7.9990    49.7700 ns         1 I5X      -0.504900
     22 N17         -1.8880     9.1910    49.6610 na         1 I5X      -0.053000
     23 N7          -7.4570     9.8570    50.9300 na         1 I5X      -0.312600
     24 N9          -8.4960     9.9360    48.9220 nd         1 I5X      -0.564100
     25 O26         -4.5180     9.5810    48.4400 o          1 I5X      -0.601100
     26 O28         -0.8190     6.1990    53.0050 o          1 I5X      -0.543100
     27 S24         -6.7720     5.5280    47.0730 ss         1 I5X      -0.419000
     28 H1          -6.7040     8.1560    48.1180 h1         1 I5X       0.124700
     29 H2          -4.0260     5.9350    51.2090 hc         1 I5X       0.051367
     30 H3          -3.2300     6.3470    52.7250 hc         1 I5X       0.051367
     31 H4          -4.5710     7.3190    52.1900 hc         1 I5X       0.051367
     32 H5           2.2790     6.0530    50.3700 hc         1 I5X       0.039700
     33 H6           0.6510     6.3930    49.7750 hc         1 I5X       0.039700
     34 H7           2.0470     7.1320    48.9870 hc         1 I5X       0.039700
     35 H8           3.0110     9.4850    51.7710 hc         1 I5X       0.039700
     36 H9           3.6720     7.8690    51.4970 hc         1 I5X       0.039700
     37 H10          3.4000     8.9580    50.1290 hc         1 I5X       0.039700
     38 H11         -8.0700    11.7560    52.9600 ha         1 I5X       0.115000
     39 H12          0.8870     9.3780    49.3010 hc         1 I5X       0.059700
     40 H13          0.7550    10.1040    50.8930 hc         1 I5X       0.059700
     41 H14         -9.7840    13.5460    52.5270 ha         1 I5X       0.112000
     42 H15          1.6310     6.8690    52.8130 hc         1 I5X       0.068700
     43 H16          0.9830     8.5100    52.9510 hc         1 I5X       0.068700
     44 H17         -8.5850     6.8330    49.1020 hc         1 I5X       0.057700
     45 H18         -7.6710     6.6270    50.5830 hc         1 I5X       0.057700
     46 H19         -7.5010     4.5890    49.2070 h1         1 I5X       0.069700
     47 H20         -5.9040     5.3450    49.3450 h1         1 I5X       0.069700
     48 H21         -8.6200     5.2210    45.4960 h1         1 I5X       0.062700
     49 H22         -8.9320     4.3660    47.0340 h1         1 I5X       0.062700
     50 H23         -9.1470     6.1390    46.9330 h1         1 I5X       0.062700
     51 H24        -10.9450    13.6530    50.3150 ha         1 I5X       0.113000
     52 H25        -10.4040    11.9760    48.5230 ha         1 I5X       0.128000
     53 H26         -5.2370     7.3280    50.4970 hn         1 I5X       0.319500
     54 H27         -1.8060     9.8830    48.9210 hn         1 I5X       0.373000
     55 H28         -6.8350     9.5470    51.6640 hn         1 I5X       0.353000
     56 C29          1.6340     6.8410    49.9610 c3         1 I5X      -0.088600
     57 C30          2.9900     8.6250    51.0900 c3         1 I5X      -0.088600
     58 C25         -8.5430     5.2900    46.5890 c3         1 I5X       0.035900
@<TRIPOS>BOND
     1     1    14 1   
     2     1    20 1   
     3     1    21 1   
     4     1    28 1   
     5     2     3 2   
     6     2     7 1   
     7     2    22 1   
     8     3     5 1   
     9     3     8 1   
    10     4     8 1   
    11     4    13 1   
    12     4    26 2   
    13     5    29 1   
    14     5    30 1   
    15     5    31 1   
    16     6    12 ar  
    17     6    19 ar  
    18     6    38 1   
    19     7    21 1   
    20     7    25 2   
    21     8     9 2   
    22     9    10 1   
    23     9    22 1   
    24    10    11 1   
    25    10    39 1   
    26    10    40 1   
    27    11    13 1   
    28    11    56 1   
    29    11    57 1   
    30    12    16 ar  
    31    12    41 1   
    32    13    42 1   
    33    13    43 1   
    34    14    15 1   
    35    14    44 1   
    36    14    45 1   
    37    15    27 1   
    38    15    46 1   
    39    15    47 1   
    40    16    17 ar  
    41    16    51 1   
    42    17    18 ar  
    43    17    52 1   
    44    18    19 ar  
    45    18    24 1   
    46    19    23 1   
    47    20    23 1   
    48    20    24 2   
    49    21    53 1   
    50    22    54 1   
    51    23    55 1   
    52    27    58 1   
    53    32    56 1   
    54    33    56 1   
    55    34    56 1   
    56    35    57 1   
    57    36    57 1   
    58    37    57 1   
    59    48    58 1   
    60    49    58 1   
    61    50    58 1   
@<TRIPOS>SUBSTRUCTURE
     1 I5X         1 TEMP              0 ****  ****    0 ROOT
