@<TRIPOS>MOLECULE
I5X
   58    61     1     0     0
SMALL
bcc


@<TRIPOS>ATOM
      1 C10         -6.8380     7.8290    49.1970 c3         1 I5X       0.097400
      2 C13         -3.1990     8.1080    50.0950 cc         1 I5X      -0.221900
      3 C14         -2.7390     7.1560    50.9820 cd         1 I5X      -0.022300
      4 C21         -0.3910     6.9170    52.1390 c          1 I5X       0.619700
      5 C27         -3.4810     5.9730    51.5130 c3         1 I5X      -0.040800
      6 C1          -8.0150    11.8400    51.8750 ca         1 I5X      -0.136000
      7 C12         -4.4700     8.3500    49.4070 c          1 I5X       0.702700
      8 C15         -1.3920     7.5210    51.2790 cd         1 I5X      -0.269600
      9 C16         -1.0920     8.6690    50.5520 cc         1 I5X      -0.034600
     10 C18          0.2000     9.3980    50.5640 c6         1 I5X      -0.017100
     11 C19          1.3370     8.4580    50.9940 c6         1 I5X      -0.031000
     12 C2          -8.8010    12.9380    51.5670 ca         1 I5X      -0.111000
     13 C20          0.9040     7.6990    52.2570 c6         1 I5X      -0.175400
     14 C22         -7.7930     6.7040    49.5950 c3         1 I5X      -0.086400
     15 C23         -7.3720     5.3250    49.1020 c3         1 I5X       0.007700
     16 C3          -9.4190    13.0690    50.3150 ca         1 I5X      -0.154000
     17 C4          -9.2710    12.1050    49.3330 ca         1 I5X      -0.065000
     18 C5          -8.4870    10.9900    49.6240 ca         1 I5X       0.070400
     19 C6          -7.8750    10.8770    50.8840 ca         1 I5X      -0.078200
     20 C8          -7.3990     9.1600    49.5990 cc         1 I5X       0.399800
     21 N11         -5.5330     7.6030    49.7760 ns         1 I5X      -0.571900
     22 N17         -2.1750     8.9990    49.8520 na         1 I5X      -0.104100
     23 N7          -7.1920     9.6910    50.8310 na         1 I5X      -0.262300
     24 N9          -8.1660     9.8990    48.8480 nd         1 I5X      -0.564100
     25 O26         -4.5540     9.2090    48.5370 o          1 I5X      -0.601100
     26 O28         -0.5620     5.8870    52.7680 o          1 I5X      -0.543100
     27 S24         -7.1520     5.1910    47.3080 ss         1 I5X      -0.323200
     28 H1          -6.7530     7.8340    48.1080 h1         1 I5X       0.124700
     29 H2          -3.9700     5.4110    50.7150 hc         1 I5X       0.051367
     30 H3          -2.8090     5.2950    52.0280 hc         1 I5X       0.051367
     31 H4          -4.2500     6.2640    52.2330 hc         1 I5X       0.051367
     32 H5           2.4750     6.8030    50.1750 hc         1 I5X       0.039700
     33 H6           0.8180     6.8590    49.5820 hc         1 I5X       0.039700
     34 H7           2.0070     8.0110    48.9810 hc         1 I5X       0.039700
     35 H8           2.3810    10.0040    52.1140 hc         1 I5X       0.039700
     36 H9           3.4050     8.6510    51.6280 hc         1 I5X       0.039700
     37 H10          2.9060     9.8500    50.4350 hc         1 I5X       0.039700
     38 H11         -7.5370    11.7400    52.8410 ha         1 I5X       0.133000
     39 H12          0.4110     9.8360    49.5840 hc         1 I5X       0.059700
     40 H13          0.1340    10.2340    51.2700 hc         1 I5X       0.059700
     41 H14         -8.9410    13.7140    52.3090 ha         1 I5X       0.130000
     42 H15          1.6970     7.0200    52.5810 hc         1 I5X       0.068700
     43 H16          0.7590     8.4210    53.0710 hc         1 I5X       0.068700
     44 H17         -8.7850     6.9490    49.2120 hc         1 I5X       0.057700
     45 H18         -7.8870     6.6670    50.6860 hc         1 I5X       0.057700
     46 H19         -8.1080     4.5860    49.4220 h1         1 I5X       0.069700
     47 H20         -6.4150     5.0250    49.5340 h1         1 I5X       0.069700
     48 H21         -8.8620     5.2540    45.6670 h1         1 I5X       0.062700
     49 H22         -9.5180     4.6880    47.2090 h1         1 I5X       0.062700
     50 H23         -9.2220     6.4220    46.9410 h1         1 I5X       0.062700
     51 H24        -10.0250    13.9430    50.1160 ha         1 I5X       0.131000
     52 H25         -9.7490    12.2100    48.3670 ha         1 I5X       0.146000
     53 H26         -5.4730     7.0160    50.5930 hn         1 I5X       0.319500
     54 H27         -2.2540     9.7860    49.2240 hn         1 I5X       0.322700
     55 H28         -6.6260     9.2920    51.5640 hn         1 I5X       0.302700
     56 C29          1.6710     7.4750    49.8710 c3         1 I5X      -0.088600
     57 C30          2.5770     9.2880    51.3120 c3         1 I5X      -0.088600
     58 C25         -8.8550     5.4160    46.7440 c3         1 I5X      -0.012000
@<TRIPOS>BOND
     1     1    14 1   
     2     1    20 1   
     3     1    21 1   
     4     1    28 1   
     5     2     3 2   
     6     2     7 1   
     7     2    22 1   
     8     3     5 1   
     9     3     8 1   
    10     4     8 1   
    11     4    13 1   
    12     4    26 2   
    13     5    29 1   
    14     5    30 1   
    15     5    31 1   
    16     6    12 ar  
    17     6    19 ar  
    18     6    38 1   
    19     7    21 1   
    20     7    25 2   
    21     8     9 2   
    22     9    10 1   
    23     9    22 1   
    24    10    11 1   
    25    10    39 1   
    26    10    40 1   
    27    11    13 1   
    28    11    56 1   
    29    11    57 1   
    30    12    16 ar  
    31    12    41 1   
    32    13    42 1   
    33    13    43 1   
    34    14    15 1   
    35    14    44 1   
    36    14    45 1   
    37    15    27 1   
    38    15    46 1   
    39    15    47 1   
    40    16    17 ar  
    41    16    51 1   
    42    17    18 ar  
    43    17    52 1   
    44    18    19 ar  
    45    18    24 1   
    46    19    23 1   
    47    20    23 1   
    48    20    24 2   
    49    21    53 1   
    50    22    54 1   
    51    23    55 1   
    52    27    58 1   
    53    32    56 1   
    54    33    56 1   
    55    34    56 1   
    56    35    57 1   
    57    36    57 1   
    58    37    57 1   
    59    48    58 1   
    60    49    58 1   
    61    50    58 1   
@<TRIPOS>SUBSTRUCTURE
     1 I5X         1 TEMP              0 ****  ****    0 ROOT
