@<TRIPOS>MOLECULE
I5Y
  110   115     1     0     0
SMALL
abcg2


@<TRIPOS>ATOM
      1 C11         19.8130   -23.2880    24.8260 c          1 I5Y       0.616100
      2 C13         22.6920   -22.6990    26.9750 ca         1 I5Y      -0.134500
      3 C14         23.8020   -21.9030    27.1890 ca         1 I5Y      -0.081000
      4 C17         28.5240   -18.7130    29.3000 c3         1 I5Y       0.148300
      5 C02         23.7130   -17.1960    27.7910 c          1 I5Y       0.589100
      6 C04         25.2080   -19.0710    27.4920 c3         1 I5Y       0.027700
      7 C05         25.4730   -20.1730    26.4560 c3         1 I5Y      -0.031100
      8 C06         24.2650   -21.0320    26.2050 ca         1 I5Y      -0.106300
      9 C07         23.5860   -21.0010    24.9950 ca         1 I5Y      -0.081000
     10 C08         22.4780   -21.8040    24.7580 ca         1 I5Y      -0.134500
     11 C09         22.0140   -22.6580    25.7560 ca         1 I5Y      -0.021000
     12 C18         28.4470   -17.9770    30.6180 ca         1 I5Y      -0.109300
     13 C19         27.2490   -17.5570    31.1770 ca         1 I5Y      -0.106000
     14 C20         27.2360   -16.8830    32.3940 ca         1 I5Y      -0.096000
     15 C21         28.4110   -16.6010    33.0770 ca         1 I5Y      -0.089300
     16 C22         28.3930   -15.8510    34.3830 c3         1 I5Y       0.196100
     17 C24         29.6140   -17.0260    32.5120 ca         1 I5Y      -0.096000
     18 C25         29.6300   -17.7010    31.3050 ca         1 I5Y      -0.106000
     19 C27         22.9110   -16.0900    27.1010 c3         1 I5Y       0.150500
     20 C28         21.7430   -16.6430    26.2650 c3         1 I5Y      -0.014100
     21 C29         20.8510   -17.6050    26.9980 ca         1 I5Y      -0.110300
     22 C30         20.8490   -18.9550    26.6580 ca         1 I5Y      -0.081500
     23 C31         20.0460   -19.8610    27.3290 ca         1 I5Y      -0.128500
     24 C32         19.2200   -19.4430    28.3680 ca         1 I5Y      -0.026000
     25 C34         18.2830   -20.5560    30.3510 c          1 I5Y       0.604100
     26 C35         17.5830   -21.8410    30.7420 c3         1 I5Y      -0.157400
     27 C36         16.0550   -21.8140    30.6310 c3         1 I5Y      -0.067400
     28 C37         15.4880   -21.3700    29.2890 c3         1 I5Y       0.155800
     29 C39         16.0090   -23.4630    28.1710 c6         1 I5Y       0.159300
     30 C40         16.1450   -24.0640    26.7700 c6         1 I5Y       0.170800
     31 C42         17.3860   -23.8930    24.7030 c3         1 I5Y       0.181800
     32 C43         18.8070   -24.4200    24.8100 c3         1 I5Y      -0.153400
     33 C44         16.3450   -21.9320    25.6950 c6         1 I5Y       0.170800
     34 C45         15.5170   -21.5020    26.9030 c6         1 I5Y       0.159300
     35 C47         19.1990   -18.0920    28.7090 ca         1 I5Y      -0.128500
     36 C48         20.0020   -17.1910    28.0240 ca         1 I5Y      -0.081500
     37 C51         24.7460   -13.7190    28.5380 ca         1 I5Y      -0.308500
     38 C52         25.7050   -13.5560    27.5480 ca         1 I5Y      -0.012500
     39 C53         27.0480   -13.6590    27.8880 ca         1 I5Y      -0.122500
     40 C54         27.4170   -13.9190    29.1990 ca         1 I5Y      -0.047000
     41 C55         26.4470   -14.0770    30.1820 ca         1 I5Y      -0.122500
     42 C56         25.1040   -13.9780    29.8560 ca         1 I5Y      -0.012500
     43 N03         24.2920   -18.0900    26.9740 ns         1 I5Y      -0.464900
     44 N10         20.9150   -23.5130    25.5880 ns         1 I5Y      -0.155000
     45 N23         29.2010   -16.5180    35.3930 n8         1 I5Y      -0.999200
     46 N33         18.4330   -20.4090    29.0120 ns         1 I5Y      -0.169000
     47 N38         16.0990   -22.0060    28.1340 n3         1 I5Y      -0.717600
     48 N41         16.9700   -23.2250    25.9260 n3         1 I5Y      -0.731600
     49 N49         22.4370   -15.1480    28.1010 n7         1 I5Y      -0.864300
     50 O01         23.7920   -17.2610    29.0070 o          1 I5Y      -0.605100
     51 O12         19.6550   -22.2740    24.1690 o          1 I5Y      -0.584100
     52 O46         18.6990   -19.7540    31.1710 o          1 I5Y      -0.594100
     53 O57         22.3380   -12.9470    29.2230 o          1 I5Y      -0.539500
     54 O58         22.9170   -13.0900    26.7760 o          1 I5Y      -0.539500
     55 S50         23.0220   -13.6110    28.1280 sy         1 I5Y       1.154600
     56 H131        22.3470   -23.3630    27.7590 ha         1 I5Y       0.127500
     57 H141        24.3140   -21.9610    28.1430 ha         1 I5Y       0.111000
     58 H171        29.1520   -19.5990    29.4160 h1         1 I5Y       0.062700
     59 H172        29.0170   -18.0860    28.5560 h1         1 I5Y       0.062700
     60 H041        24.7590   -19.5340    28.3750 h1         1 I5Y       0.089700
     61 H052        26.2900   -20.7950    26.8260 hc         1 I5Y       0.059200
     62 H051        25.8220   -19.7210    25.5240 hc         1 I5Y       0.059200
     63 H071        23.9310   -20.3430    24.2060 ha         1 I5Y       0.111000
     64 H081        21.9950   -21.7610    23.7940 ha         1 I5Y       0.127500
     65 H191        26.3100   -17.7560    30.6770 ha         1 I5Y       0.117500
     66 H201        26.2860   -16.5720    32.8150 ha         1 I5Y       0.119500
     67 H222        28.8170   -14.8550    34.2250 h1         1 I5Y       0.035200
     68 H221        27.3480   -15.6900    34.6820 h1         1 I5Y       0.035200
     69 H241        30.5460   -16.8320    33.0290 ha         1 I5Y       0.119500
     70 H251        30.5780   -18.0240    30.8870 ha         1 I5Y       0.117500
     71 H271        23.5840   -15.5790    26.4060 h1         1 I5Y       0.075700
     72 H282        21.1770   -15.7800    25.9090 hc         1 I5Y       0.059200
     73 H281        22.1480   -17.1310    25.3760 hc         1 I5Y       0.059200
     74 H301        21.4890   -19.3140    25.8610 ha         1 I5Y       0.118000
     75 H311        20.0690   -20.9090    27.0560 ha         1 I5Y       0.124500
     76 H351        17.9800   -22.6580    30.1350 hc         1 I5Y       0.062700
     77 H352        17.8510   -22.0610    31.7760 hc         1 I5Y       0.062700
     78 H362        15.6450   -21.1490    31.3940 hc         1 I5Y       0.048200
     79 H361        15.6920   -22.8140    30.8790 hc         1 I5Y       0.048200
     80 H371        15.6240   -20.2910    29.1780 h1         1 I5Y       0.039700
     81 H372        14.4000   -21.5430    29.3080 h1         1 I5Y       0.039700
     82 H391        15.0510   -23.7950    28.5970 h1         1 I5Y       0.037700
     83 H392        16.7970   -23.8540    28.8190 h1         1 I5Y       0.037700
     84 H401        15.1490   -24.2320    26.3280 h1         1 I5Y       0.039200
     85 H402        16.6070   -25.0500    26.8560 h1         1 I5Y       0.039200
     86 H421        17.3290   -23.1980    23.8640 h1         1 I5Y       0.048200
     87 H422        16.7100   -24.7190    24.4500 h1         1 I5Y       0.048200
     88 H432        19.0360   -25.0440    23.9390 hc         1 I5Y       0.061200
     89 H431        18.9130   -25.0650    25.6860 hc         1 I5Y       0.061200
     90 H441        17.1280   -21.1950    25.4960 h1         1 I5Y       0.039200
     91 H442        15.6840   -21.9380    24.8160 h1         1 I5Y       0.039200
     92 H451        15.4860   -20.4110    26.9430 h1         1 I5Y       0.037700
     93 H452        14.4730   -21.8350    26.7940 h1         1 I5Y       0.037700
     94 H471        18.5420   -17.7330    29.4880 ha         1 I5Y       0.124500
     95 H481        19.9520   -16.1430    28.2910 ha         1 I5Y       0.118000
     96 H521        25.4200   -13.3470    26.5260 ha         1 I5Y       0.129500
     97 H531        27.8030   -13.5330    27.1240 ha         1 I5Y       0.117500
     98 H541        28.4650   -13.9990    29.4600 ha         1 I5Y       0.115000
     99 H551        26.7360   -14.2790    31.2040 ha         1 I5Y       0.117500
    100 H561        24.3520   -14.0980    30.6250 ha         1 I5Y       0.129500
    101 H031        24.3150   -17.9040    25.9820 hn         1 I5Y       0.322500
    102 H101        20.8950   -24.3260    26.1860 hn         1 I5Y       0.152000
    103 H161        26.8530   -19.9810    29.1510 hn         1 I5Y       0.315500
    104 H232        29.2450   -15.9410    36.2220 hn         1 I5Y       0.396000
    105 H1          28.7460   -17.3780    35.6730 hn         1 I5Y       0.396000
    106 H331        17.9840   -21.1190    28.4320 hn         1 I5Y       0.191000
    107 H491        22.3650   -15.5480    29.0330 hn         1 I5Y       0.510000
    108 C15         26.5240   -18.4050    27.9130 c          1 I5Y       0.580100
    109 N16         27.2520   -19.1340    28.7760 ns         1 I5Y      -0.501900
    110 O26         26.8770   -17.3270    27.4680 o          1 I5Y      -0.590100
@<TRIPOS>BOND
     1     1    32 1   
     2     1    44 1   
     3     1    51 2   
     4     2     3 ar  
     5     2    11 ar  
     6     2    56 1   
     7     3     8 ar  
     8     3    57 1   
     9     4    12 1   
    10     4    58 1   
    11     4    59 1   
    12     4   109 1   
    13     5    19 1   
    14     5    43 1   
    15     5    50 2   
    16     6     7 1   
    17     6    43 1   
    18     6    60 1   
    19     6   108 1   
    20     7     8 1   
    21     7    61 1   
    22     7    62 1   
    23     8     9 ar  
    24     9    10 ar  
    25     9    63 1   
    26    10    11 ar  
    27    10    64 1   
    28    11    44 1   
    29    12    13 ar  
    30    12    18 ar  
    31    13    14 ar  
    32    13    65 1   
    33    14    15 ar  
    34    14    66 1   
    35    15    16 1   
    36    15    17 ar  
    37    16    45 1   
    38    16    67 1   
    39    16    68 1   
    40    17    18 ar  
    41    17    69 1   
    42    18    70 1   
    43    19    20 1   
    44    19    49 1   
    45    19    71 1   
    46    20    21 1   
    47    20    72 1   
    48    20    73 1   
    49    21    22 ar  
    50    21    36 ar  
    51    22    23 ar  
    52    22    74 1   
    53    23    24 ar  
    54    23    75 1   
    55    24    35 ar  
    56    24    46 1   
    57    25    26 1   
    58    25    46 1   
    59    25    52 2   
    60    26    27 1   
    61    26    76 1   
    62    26    77 1   
    63    27    28 1   
    64    27    78 1   
    65    27    79 1   
    66    28    47 1   
    67    28    80 1   
    68    28    81 1   
    69    29    30 1   
    70    29    47 1   
    71    29    82 1   
    72    29    83 1   
    73    30    48 1   
    74    30    84 1   
    75    30    85 1   
    76    31    32 1   
    77    31    48 1   
    78    31    86 1   
    79    31    87 1   
    80    32    88 1   
    81    32    89 1   
    82    33    34 1   
    83    33    48 1   
    84    33    90 1   
    85    33    91 1   
    86    34    47 1   
    87    34    92 1   
    88    34    93 1   
    89    35    36 ar  
    90    35    94 1   
    91    36    95 1   
    92    37    38 ar  
    93    37    42 ar  
    94    37    55 1   
    95    38    39 ar  
    96    38    96 1   
    97    39    40 ar  
    98    39    97 1   
    99    40    41 ar  
   100    40    98 1   
   101    41    42 ar  
   102    41    99 1   
   103    42   100 1   
   104    43   101 1   
   105    44   102 1   
   106    45   104 1   
   107    45   105 1   
   108    46   106 1   
   109    49    55 1   
   110    49   107 1   
   111    53    55 2   
   112    54    55 2   
   113   103   109 1   
   114   108   109 1   
   115   108   110 2   
@<TRIPOS>SUBSTRUCTURE
     1 I5Y         1 TEMP              0 ****  ****    0 ROOT
