@<TRIPOS>MOLECULE
I5Y
  110   115     1     0     0
SMALL
No Charge or Current Charge


@<TRIPOS>ATOM
      1 C11         19.8480   -23.1240    24.2260 c          1 I5Y       0.616100
      2 C13         22.6270   -22.3530    26.6630 ca         1 I5Y      -0.134500
      3 C14         23.8900   -21.7610    26.8410 ca         1 I5Y      -0.081000
      4 C17         29.3680   -18.8150    28.7430 c3         1 I5Y       0.148300
      5 C02         24.0450   -17.7930    27.3950 c          1 I5Y       0.589100
      6 C04         25.9800   -19.3640    26.9830 c3         1 I5Y       0.027700
      7 C05         25.9230   -20.5080    25.9460 c3         1 I5Y      -0.031100
      8 C06         24.5280   -21.1060    25.7710 ca         1 I5Y      -0.106300
      9 C07         23.8760   -21.0400    24.5260 ca         1 I5Y      -0.081000
     10 C08         22.6140   -21.6330    24.3480 ca         1 I5Y      -0.134500
     11 C09         21.9780   -22.3050    25.4160 ca         1 I5Y      -0.021000
     12 C18         29.0640   -17.7730    29.8110 ca         1 I5Y      -0.109300
     13 C19         28.9910   -18.1430    31.1680 ca         1 I5Y      -0.106000
     14 C20         28.6620   -17.1900    32.1480 ca         1 I5Y      -0.096000
     15 C21         28.3970   -15.8550    31.7830 ca         1 I5Y      -0.089300
     16 C22         27.9970   -14.8310    32.8370 c3         1 I5Y       0.196100
     17 C24         28.4760   -15.4850    30.4260 ca         1 I5Y      -0.096000
     18 C25         28.8070   -16.4370    29.4480 ca         1 I5Y      -0.106000
     19 C27         23.3480   -16.4680    26.9220 c3         1 I5Y       0.150500
     20 C28         21.9810   -16.7500    26.2450 c3         1 I5Y      -0.014100
     21 C29         21.0490   -17.6490    27.0530 ca         1 I5Y      -0.110300
     22 C30         20.8990   -19.0020    26.6970 ca         1 I5Y      -0.081500
     23 C31         20.0730   -19.8460    27.4540 ca         1 I5Y      -0.128500
     24 C32         19.3960   -19.3610    28.5860 ca         1 I5Y      -0.026000
     25 C34         17.9780   -20.2140    30.5500 c          1 I5Y       0.604100
     26 C35         17.2700   -21.5130    30.9600 c3         1 I5Y      -0.157400
     27 C36         15.7340   -21.4360    30.7650 c3         1 I5Y      -0.067400
     28 C37         15.2830   -20.8880    29.3870 c3         1 I5Y       0.155800
     29 C39         15.7660   -22.9480    28.0340 c6         1 I5Y       0.159300
     30 C40         16.6480   -23.5470    26.8790 c6         1 I5Y       0.170800
     31 C42         17.3370   -23.2470    24.4990 c3         1 I5Y       0.181800
     32 C43         18.6560   -24.0420    24.4990 c3         1 I5Y      -0.153400
     33 C44         15.9480   -21.5450    25.6280 c6         1 I5Y       0.170800
     34 C45         15.6590   -20.7450    26.9460 c6         1 I5Y       0.159300
     35 C47         19.5250   -17.9980    28.9300 ca         1 I5Y      -0.128500
     36 C48         20.3430   -17.1480    28.1630 ca         1 I5Y      -0.081500
     37 C51         24.4650   -15.3080    30.3380 ca         1 I5Y      -0.308500
     38 C52         25.1760   -16.4670    30.7140 ca         1 I5Y      -0.012500
     39 C53         25.1190   -16.9270    32.0400 ca         1 I5Y      -0.122500
     40 C54         24.3600   -16.2330    32.9970 ca         1 I5Y      -0.047000
     41 C55         23.6520   -15.0770    32.6250 ca         1 I5Y      -0.122500
     42 C56         23.7010   -14.6130    31.2990 ca         1 I5Y      -0.012500
     43 N03         25.0810   -18.2500    26.6060 ns         1 I5Y      -0.464900
     44 N10         20.7210   -22.9660    25.2960 ns         1 I5Y      -0.155000
     45 N23         29.1640   -14.0750    33.3300 n8         1 I5Y      -0.999200
     46 N33         18.6120   -20.2870    29.3190 ns         1 I5Y      -0.169000
     47 N38         15.9700   -21.4820    28.2140 n3         1 I5Y      -0.717600
     48 N41         17.0110   -22.5800    25.7820 n3         1 I5Y      -0.731600
     49 N49         23.1790   -15.4840    28.0370 n7         1 I5Y      -0.864300
     50 O01         23.7540   -18.3410    28.4520 o          1 I5Y      -0.605100
     51 O12         20.0210   -22.6300    23.1170 o          1 I5Y      -0.584100
     52 O46         18.0020   -19.2350    31.2880 o          1 I5Y      -0.594100
     53 O57         24.2370   -13.2830    28.5920 o          1 I5Y      -0.539500
     54 O58         25.6930   -15.3090    27.9760 o          1 I5Y      -0.539500
     55 S50         24.5330   -14.7170    28.6450 sy         1 I5Y       1.154600
     56 H131        22.1580   -22.8640    27.5010 ha         1 I5Y       0.127500
     57 H141        24.3790   -21.8260    27.8110 ha         1 I5Y       0.111000
     58 H171        29.9630   -19.6310    29.1740 h1         1 I5Y       0.062700
     59 H172        29.9560   -18.3650    27.9320 h1         1 I5Y       0.062700
     60 H041        25.6710   -19.7660    27.9560 h1         1 I5Y       0.089700
     61 H052        26.6180   -21.2990    26.2560 hc         1 I5Y       0.059200
     62 H051        26.3030   -20.1350    24.9860 hc         1 I5Y       0.059200
     63 H071        24.3520   -20.5400    23.6860 ha         1 I5Y       0.111000
     64 H081        22.1580   -21.5670    23.3660 ha         1 I5Y       0.127500
     65 H191        29.1780   -19.1730    31.4640 ha         1 I5Y       0.117500
     66 H201        28.5990   -17.4920    33.1910 ha         1 I5Y       0.119500
     67 H222        27.2690   -14.1260    32.4120 h1         1 I5Y       0.035200
     68 H221        27.5200   -15.3410    33.6850 h1         1 I5Y       0.035200
     69 H241        28.2680   -14.4590    30.1300 ha         1 I5Y       0.119500
     70 H251        28.8470   -16.1390    28.4020 ha         1 I5Y       0.117500
     71 H271        23.9860   -16.0240    26.1440 h1         1 I5Y       0.075700
     72 H282        21.4870   -15.7950    26.0270 hc         1 I5Y       0.059200
     73 H281        22.1750   -17.2070    25.2660 hc         1 I5Y       0.059200
     74 H301        21.4320   -19.4060    25.8390 ha         1 I5Y       0.118000
     75 H311        19.9710   -20.8900    27.1680 ha         1 I5Y       0.124500
     76 H351        17.6450   -22.3420    30.3480 hc         1 I5Y       0.062700
     77 H352        17.4750   -21.7150    32.0170 hc         1 I5Y       0.062700
     78 H362        15.3060   -20.7930    31.5440 hc         1 I5Y       0.048200
     79 H361        15.3030   -22.4320    30.9210 hc         1 I5Y       0.048200
     80 H371        15.4600   -19.8040    29.3900 h1         1 I5Y       0.039700
     81 H372        14.1970   -21.0260    29.2970 h1         1 I5Y       0.039700
     82 H391        14.7090   -23.1410    27.7990 h1         1 I5Y       0.037700
     83 H392        15.9880   -23.5010    28.9570 h1         1 I5Y       0.037700
     84 H401        16.1090   -24.4140    26.4700 h1         1 I5Y       0.039200
     85 H402        17.5720   -23.9380    27.3280 h1         1 I5Y       0.039200
     86 H421        17.3830   -22.5070    23.6870 h1         1 I5Y       0.048200
     87 H422        16.5210   -23.9360    24.2360 h1         1 I5Y       0.048200
     88 H432        18.6010   -24.7680    23.6790 hc         1 I5Y       0.061200
     89 H431        18.7790   -24.5780    25.4460 hc         1 I5Y       0.061200
     90 H441        16.2130   -20.8280    24.8370 h1         1 I5Y       0.039200
     91 H442        15.0130   -22.0300    25.3110 h1         1 I5Y       0.039200
     92 H451        16.2480   -19.8170    26.9250 h1         1 I5Y       0.037700
     93 H452        14.6010   -20.4430    26.9250 h1         1 I5Y       0.037700
     94 H471        18.9990   -17.5790    29.7820 ha         1 I5Y       0.124500
     95 H481        20.4310   -16.1000    28.4390 ha         1 I5Y       0.118000
     96 H521        25.7750   -17.0150    29.9880 ha         1 I5Y       0.129500
     97 H531        25.6680   -17.8210    32.3270 ha         1 I5Y       0.117500
     98 H541        24.3200   -16.5890    34.0240 ha         1 I5Y       0.115000
     99 H551        23.0640   -14.5400    33.3650 ha         1 I5Y       0.117500
    100 H561        23.1470   -13.7170    31.0250 ha         1 I5Y       0.129500
    101 H031        25.3140   -17.7040    25.7840 hn         1 I5Y       0.322500
    102 H101        20.4250   -23.4370    26.1410 hn         1 I5Y       0.152000
    103 H161        27.6580   -20.0890    28.7490 hn         1 I5Y       0.315500
    104 H232        28.8650   -13.4690    34.1020 hn         1 I5Y       0.396000
    105 H1          29.8150   -14.7330    33.7720 hn         1 I5Y       0.396000
    106 H331        18.4540   -21.1620    28.8360 hn         1 I5Y       0.191000
    107 H491        22.8820   -16.0040    28.8630 hn         1 I5Y       0.510000
    108 C15         27.4200   -18.8190    27.1600 c          1 I5Y       0.580100
    109 N16         28.1230   -19.3660    28.2120 ns         1 I5Y      -0.501900
    110 O26         27.8960   -17.9460    26.4440 o          1 I5Y      -0.590100
@<TRIPOS>BOND
     1     1    32 1   
     2     1    44 1   
     3     1    51 2   
     4     2     3 ar  
     5     2    11 ar  
     6     2    56 1   
     7     3     8 ar  
     8     3    57 1   
     9     4    12 1   
    10     4    58 1   
    11     4    59 1   
    12     4   109 1   
    13     5    19 1   
    14     5    43 1   
    15     5    50 2   
    16     6     7 1   
    17     6    43 1   
    18     6    60 1   
    19     6   108 1   
    20     7     8 1   
    21     7    61 1   
    22     7    62 1   
    23     8     9 ar  
    24     9    10 ar  
    25     9    63 1   
    26    10    11 ar  
    27    10    64 1   
    28    11    44 1   
    29    12    13 ar  
    30    12    18 ar  
    31    13    14 ar  
    32    13    65 1   
    33    14    15 ar  
    34    14    66 1   
    35    15    16 1   
    36    15    17 ar  
    37    16    45 1   
    38    16    67 1   
    39    16    68 1   
    40    17    18 ar  
    41    17    69 1   
    42    18    70 1   
    43    19    20 1   
    44    19    49 1   
    45    19    71 1   
    46    20    21 1   
    47    20    72 1   
    48    20    73 1   
    49    21    22 ar  
    50    21    36 ar  
    51    22    23 ar  
    52    22    74 1   
    53    23    24 ar  
    54    23    75 1   
    55    24    35 ar  
    56    24    46 1   
    57    25    26 1   
    58    25    46 1   
    59    25    52 2   
    60    26    27 1   
    61    26    76 1   
    62    26    77 1   
    63    27    28 1   
    64    27    78 1   
    65    27    79 1   
    66    28    47 1   
    67    28    80 1   
    68    28    81 1   
    69    29    30 1   
    70    29    47 1   
    71    29    82 1   
    72    29    83 1   
    73    30    48 1   
    74    30    84 1   
    75    30    85 1   
    76    31    32 1   
    77    31    48 1   
    78    31    86 1   
    79    31    87 1   
    80    32    88 1   
    81    32    89 1   
    82    33    34 1   
    83    33    48 1   
    84    33    90 1   
    85    33    91 1   
    86    34    47 1   
    87    34    92 1   
    88    34    93 1   
    89    35    36 ar  
    90    35    94 1   
    91    36    95 1   
    92    37    38 ar  
    93    37    42 ar  
    94    37    55 1   
    95    38    39 ar  
    96    38    96 1   
    97    39    40 ar  
    98    39    97 1   
    99    40    41 ar  
   100    40    98 1   
   101    41    42 ar  
   102    41    99 1   
   103    42   100 1   
   104    43   101 1   
   105    44   102 1   
   106    45   104 1   
   107    45   105 1   
   108    46   106 1   
   109    49    55 1   
   110    49   107 1   
   111    53    55 2   
   112    54    55 2   
   113   103   109 1   
   114   108   109 1   
   115   108   110 2   
@<TRIPOS>SUBSTRUCTURE
     1 I5Y         1 TEMP              0 ****  ****    0 ROOT
