@<TRIPOS>MOLECULE
I5Z
   19    20     1     0     0
SMALL
bcc


@<TRIPOS>ATOM
      1 C10         13.4280    26.9700    -5.0130 cx         1 I5Z      -0.086400
      2 C02         17.3500    25.4050    -5.7380 c          1 I5Z       0.853900
      3 C04         18.1030    27.5190    -6.7430 c          1 I5Z       0.726500
      4 C06         16.6650    27.9410    -6.7780 c6         1 I5Z      -0.282700
      5 C07         15.7010    26.9590    -6.2020 c2         1 I5Z       0.554300
      6 C09         14.2980    27.3770    -6.1850 cx         1 I5Z      -0.241000
      7 C11         13.2120    26.3320    -6.3270 cx         1 I5Z      -0.086400
      8 N03         18.3170    26.2730    -6.2270 ns         1 I5Z      -0.632500
      9 N08         16.0270    25.8110    -5.7380 ne         1 I5Z      -0.652100
     10 O05         19.0070    28.2160    -7.1400 o          1 I5Z      -0.587500
     11 H1          12.7190    27.7110    -4.6690 hc         1 I5Z       0.085700
     12 H2          13.9090    26.3930    -4.2340 hc         1 I5Z       0.085700
     13 H3          16.5610    28.8990    -6.2590 hc         1 I5Z       0.106700
     14 H4          16.3830    28.1480    -7.8160 hc         1 I5Z       0.106700
     15 H5          14.1020    28.3490    -6.6200 hc         1 I5Z       0.092700
     16 H6          12.3490    26.6210    -6.9110 hc         1 I5Z       0.085700
     17 H7          13.5410    25.3110    -6.4630 hc         1 I5Z       0.085700
     18 H8          19.2740    25.9420    -6.1920 hn         1 I5Z       0.340500
     19 O01         17.6730    24.3190    -5.3200 o          1 I5Z      -0.555500
@<TRIPOS>BOND
     1     1     6 1   
     2     1     7 1   
     3     1    11 1   
     4     1    12 1   
     5     2     8 1   
     6     2     9 1   
     7     2    19 2   
     8     3     4 1   
     9     3     8 1   
    10     3    10 2   
    11     4     5 1   
    12     4    13 1   
    13     4    14 1   
    14     5     6 1   
    15     5     9 2   
    16     6     7 1   
    17     6    15 1   
    18     7    16 1   
    19     7    17 1   
    20     8    18 1   
@<TRIPOS>SUBSTRUCTURE
     1 I5Z         1 TEMP              0 ****  ****    0 ROOT
