@<TRIPOS>MOLECULE
I5Z
   19    20     1     0     0
SMALL
No Charge or Current Charge


@<TRIPOS>ATOM
      1 C10         13.3190    26.4600    -5.2360 cx         1 I5Z      -0.086400
      2 C02         17.6610    25.6720    -5.2930 c          1 I5Z       0.711400
      3 C04         17.9120    27.4310    -6.9510 c          1 I5Z       0.584000
      4 C06         16.4390    27.3550    -7.2180 c6         1 I5Z      -0.282700
      5 C07         15.7970    26.9470    -5.9350 c2         1 I5Z       0.554300
      6 C09         14.4320    27.4310    -5.5800 cx         1 I5Z      -0.241000
      7 C11         13.2730    27.2270    -6.5360 cx         1 I5Z      -0.086400
      8 N03         18.3720    26.4100    -6.1910 ns         1 I5Z      -0.498500
      9 N08         16.3660    26.1510    -5.0830 ne         1 I5Z      -0.652100
     10 O05         18.6160    28.3650    -7.2910 o          1 I5Z      -0.512000
     11 H1          12.6190    26.7460    -4.4540 hc         1 I5Z       0.085700
     12 H2          13.5290    25.3940    -5.2860 hc         1 I5Z       0.085700
     13 H3          16.0540    28.2970    -7.6250 hc         1 I5Z       0.106700
     14 H4          16.2620    26.5260    -7.9140 hc         1 I5Z       0.106700
     15 H5          14.4470    28.3730    -5.0360 hc         1 I5Z       0.092700
     16 H6          12.5420    28.0270    -6.6270 hc         1 I5Z       0.085700
     17 H7          13.4500    26.6700    -7.4540 hc         1 I5Z       0.085700
     18 H8          19.3710    26.2780    -6.1680 hn         1 I5Z       0.340500
     19 O01         18.1590    24.7370    -4.6970 o          1 I5Z      -0.480000
@<TRIPOS>BOND
     1     1     6 1   
     2     1     7 1   
     3     1    11 1   
     4     1    12 1   
     5     2     8 1   
     6     2     9 1   
     7     2    19 2   
     8     3     4 1   
     9     3     8 1   
    10     3    10 2   
    11     4     5 1   
    12     4    13 1   
    13     4    14 1   
    14     5     6 1   
    15     5     9 2   
    16     6     7 1   
    17     6    15 1   
    18     7    16 1   
    19     7    17 1   
    20     8    18 1   
@<TRIPOS>SUBSTRUCTURE
     1 I5Z         1 TEMP              0 ****  ****    0 ROOT
