@<TRIPOS>MOLECULE
I60
   61    63     1     0     0
SMALL
bcc


@<TRIPOS>ATOM
      1 N1          14.6650   -10.9020     8.9400 n8         1 I60      -0.885800
      2 C1          14.1710   -12.2690     8.9910 c3         1 I60       0.145800
      3 C2          13.5550   -12.5700    10.3490 c3         1 I60      -0.068400
      4 C3          13.0180   -13.9910    10.4520 c3         1 I60      -0.156400
      5 C4          11.7760   -14.2210     9.6150 c          1 I60       0.666100
      6 O1          10.8830   -13.3900     9.5430 o          1 I60      -0.592100
      7 N2          11.7180   -15.4190     8.9990 ns         1 I60      -0.579900
      8 C5          10.6190   -15.8490     8.1730 c6         1 I60       0.037700
      9 C6           9.7610   -16.8970     8.8950 c6         1 I60       0.113100
     10 O2          10.5230   -18.0130     9.2940 oh         1 I60      -0.603800
     11 C7           8.6810   -17.4290     7.9520 c6         1 I60       0.140100
     12 O3           7.7460   -16.3930     7.6670 os         1 I60      -0.428900
     13 C8           6.7100   -16.2230     8.5060 c          1 I60       0.755100
     14 N3           5.9070   -15.2390     8.0730 nt         1 I60      -0.665000
     15 O4           6.5320   -16.8830     9.5080 o          1 I60      -0.595000
     16 C9           9.2980   -17.8600     6.6270 c6         1 I60       0.149100
     17 C10          8.2560   -18.3340     5.6340 c3         1 I60       0.148400
     18 O5           8.9150   -18.9470     4.5520 oh         1 I60      -0.590800
     19 O6          10.0280   -16.8020     6.0480 os         1 I60      -0.368600
     20 C11         11.1310   -16.3870     6.8260 c6         1 I60       0.366300
     21 N4          11.7790   -15.3590     6.0910 n2         1 I60      -0.683900
     22 C12         13.0490   -15.2870     6.0650 c2         1 I60       0.796100
     23 N5          13.7140   -14.3010     5.3620 nu         1 I60      -0.790200
     24 C13         15.0850   -14.2960     5.8000 c5         1 I60       0.108500
     25 C14         16.1490   -13.8130     4.8570 c          1 I60       0.723500
     26 O7          15.9480   -13.0210     3.9520 o          1 I60      -0.607500
     27 N6          17.3680   -14.2930     5.1830 ns         1 I60      -0.581900
     28 C15         17.6940   -15.4350     6.0390 c6         1 I60       0.113000
     29 C16         16.5460   -15.9460     6.9140 c6         1 I60       0.147100
     30 O8          16.5170   -15.2340     8.1250 oh         1 I60      -0.584800
     31 C17         15.2880   -15.7680     6.0900 c5         1 I60       0.142500
     32 N7          14.0050   -16.0880     6.6770 nu         1 I60      -0.868200
     33 H1          15.1160   -10.7400     8.0480 hn         1 I60       0.340800
     34 H2          13.8790   -10.2640     8.9660 hn         1 I60       0.340800
     35 H4          13.4430   -12.4990     8.1980 h1         1 I60       0.026200
     36 H5          15.0150   -12.9450     8.8360 h1         1 I60       0.026200
     37 H6          14.3140   -12.4200    11.1200 hc         1 I60       0.062700
     38 H7          12.7540   -11.8570    10.5620 hc         1 I60       0.062700
     39 H8          12.7400   -14.2000    11.4900 hc         1 I60       0.053700
     40 H9          13.8010   -14.7100    10.1980 hc         1 I60       0.053700
     41 H10         12.5150   -16.0310     9.0840 hn         1 I60       0.306500
     42 H11          9.9990   -14.9760     7.9640 h1         1 I60       0.122700
     43 H12          9.2830   -16.4240     9.7620 h1         1 I60       0.069700
     44 H13         11.0540   -17.7680    10.0580 ho         1 I60       0.411000
     45 H14          8.1800   -18.2830     8.4150 h1         1 I60       0.090700
     46 H15          5.1200   -14.9630     8.6330 hn         1 I60       0.333000
     47 H16          6.1250   -14.6920     7.2580 hn         1 I60       0.333000
     48 H17          9.9630   -18.7090     6.8510 h1         1 I60       0.067700
     49 H18          7.6420   -17.4870     5.3080 h1         1 I60       0.034700
     50 H19          7.5890   -19.0360     6.1530 h1         1 I60       0.034700
     51 H20          8.2570   -19.1700     3.8880 ho         1 I60       0.407000
     52 H21         11.7660   -17.2710     7.0220 h2         1 I60       0.006700
     53 H22         13.2290   -13.4220     5.2600 hn         1 I60       0.450800
     54 H23         15.1990   -13.7190     6.7280 h1         1 I60       0.079700
     55 H24         18.1300   -13.9730     4.6010 hn         1 I60       0.320500
     56 H25         18.0180   -16.2600     5.4010 h1         1 I60       0.057200
     57 H26         18.5410   -15.1720     6.6730 h1         1 I60       0.057200
     58 H27         16.7290   -17.0120     7.0950 h1         1 I60       0.048700
     59 H28         15.7420   -15.5180     8.6230 ho         1 I60       0.418000
     60 H29         15.4300   -16.3150     5.1460 h1         1 I60       0.065700
     61 H30         13.7840   -17.0670     6.7970 hn         1 I60       0.416800
@<TRIPOS>BOND
     1     1     2 1   
     2     1    33 1   
     3     1    34 1   
     4     2     3 1   
     5     2    35 1   
     6     2    36 1   
     7     3     4 1   
     8     3    37 1   
     9     3    38 1   
    10     4     5 1   
    11     4    39 1   
    12     4    40 1   
    13     5     6 2   
    14     5     7 1   
    15     7     8 1   
    16     7    41 1   
    17     8     9 1   
    18     8    20 1   
    19     8    42 1   
    20     9    10 1   
    21     9    11 1   
    22     9    43 1   
    23    10    44 1   
    24    11    12 1   
    25    11    16 1   
    26    11    45 1   
    27    12    13 1   
    28    13    14 1   
    29    13    15 2   
    30    14    46 1   
    31    14    47 1   
    32    16    17 1   
    33    16    19 1   
    34    16    48 1   
    35    17    18 1   
    36    17    49 1   
    37    17    50 1   
    38    18    51 1   
    39    19    20 1   
    40    20    21 1   
    41    20    52 1   
    42    21    22 2   
    43    22    23 1   
    44    22    32 1   
    45    23    24 1   
    46    23    53 1   
    47    24    25 1   
    48    24    31 1   
    49    24    54 1   
    50    25    26 2   
    51    25    27 1   
    52    27    28 1   
    53    27    55 1   
    54    28    29 1   
    55    28    56 1   
    56    28    57 1   
    57    29    30 1   
    58    29    31 1   
    59    29    58 1   
    60    30    59 1   
    61    31    32 1   
    62    31    60 1   
    63    32    61 1   
@<TRIPOS>SUBSTRUCTURE
     1 I60         1 TEMP              0 ****  ****    0 ROOT
