@<TRIPOS>MOLECULE
I60
   61    63     1     0     0
SMALL
No Charge or Current Charge


@<TRIPOS>ATOM
      1 N1          13.6320   -10.5870     8.6400 n8         1 I60      -0.996200
      2 C1          13.3930   -12.0360     8.7630 c3         1 I60       0.145800
      3 C2          13.4370   -12.4900    10.2380 c3         1 I60      -0.068400
      4 C3          13.2230   -14.0130    10.4310 c3         1 I60      -0.156400
      5 C4          11.8660   -14.4810     9.8940 c          1 I60       0.599100
      6 O1          10.8080   -14.1780    10.4220 o          1 I60      -0.592100
      7 N2          11.9240   -15.2980     8.7890 ns         1 I60      -0.512900
      8 C5          10.7550   -15.7830     8.0100 c6         1 I60       0.037700
      9 C6           9.9720   -16.8930     8.7780 c6         1 I60       0.136300
     10 O2          10.8490   -17.9900     9.1040 oh         1 I60      -0.666000
     11 C7           8.7590   -17.3850     7.9260 c6         1 I60       0.163300
     12 O3           7.7480   -16.3520     7.8020 os         1 I60      -0.452100
     13 C8           6.9690   -16.0120     8.8620 c          1 I60       0.639100
     14 N3           6.1540   -15.0060     8.5250 nt         1 I60      -0.598000
     15 O4           6.9830   -16.5330     9.9620 o          1 I60      -0.546000
     16 C9           9.2640   -17.8180     6.5170 c6         1 I60       0.172300
     17 C10          8.1010   -18.2660     5.5720 c3         1 I60       0.171600
     18 O5           8.5580   -18.7220     4.2820 oh         1 I60      -0.713000
     19 O6           9.9950   -16.7340     5.8840 os         1 I60      -0.415000
     20 C11         11.1720   -16.3290     6.6010 c6         1 I60       0.389500
     21 N4          11.9560   -15.3480     5.8440 n2         1 I60      -0.683900
     22 C12         13.2200   -15.3670     5.8570 c2         1 I60       0.796100
     23 N5          13.9360   -14.4120     5.2340 nu         1 I60      -0.845400
     24 C13         15.2900   -14.4330     5.8670 c5         1 I60       0.108500
     25 C14         16.5270   -13.9690     5.0200 c          1 I60       0.581000
     26 O7          16.5180   -13.1990     4.0700 o          1 I60      -0.532000
     27 N6          17.7150   -14.5130     5.4850 ns         1 I60      -0.514900
     28 C15         17.8990   -15.5820     6.5040 c6         1 I60       0.113000
     29 C16         16.6030   -16.3050     6.9860 c6         1 I60       0.170300
     30 O8          16.2870   -15.9750     8.3440 oh         1 I60      -0.647000
     31 C17         15.3980   -15.9540     6.0880 c5         1 I60       0.142500
     32 N7          14.0190   -16.1860     6.6020 nu         1 I60      -0.923400
     33 H1          13.5440   -10.3140     7.6530 hn         1 I60       0.396000
     34 H2          12.8650   -10.0790     9.0970 hn         1 I60       0.396000
     35 H4          12.4120   -12.2680     8.3250 h1         1 I60       0.026200
     36 H5          14.1650   -12.5660     8.1910 h1         1 I60       0.026200
     37 H6          14.4080   -12.2140    10.6690 hc         1 I60       0.062700
     38 H7          12.6730   -11.9460    10.8070 hc         1 I60       0.062700
     39 H8          13.2620   -14.2270    11.5050 hc         1 I60       0.053700
     40 H9          14.0350   -14.5490     9.9270 hc         1 I60       0.053700
     41 H10         12.8450   -15.4630     8.3950 hn         1 I60       0.306500
     42 H11         10.0800   -14.9300     7.8460 h1         1 I60       0.122700
     43 H12          9.5830   -16.4580     9.7090 h1         1 I60       0.069700
     44 H13         11.5730   -17.6130     9.6510 ho         1 I60       0.450000
     45 H14          8.3060   -18.2600     8.4160 h1         1 I60       0.090700
     46 H15          5.5070   -14.6400     9.2060 hn         1 I60       0.333000
     47 H16          6.1970   -14.6280     7.5920 hn         1 I60       0.333000
     48 H17          9.9420   -18.6770     6.6320 h1         1 I60       0.067700
     49 H18          7.4110   -17.4210     5.4470 h1         1 I60       0.034700
     50 H19          7.5440   -19.0680     6.0760 h1         1 I60       0.034700
     51 H20          7.7560   -18.9000     3.7380 ho         1 I60       0.506000
     52 H21         11.7880   -17.2280     6.7450 h2         1 I60       0.006700
     53 H22         13.4160   -13.5480     5.1240 hn         1 I60       0.506000
     54 H23         15.3170   -13.8950     6.8240 h1         1 I60       0.079700
     55 H24         18.5430   -14.2000     4.9900 hn         1 I60       0.320500
     56 H25         18.5710   -16.3360     6.0690 h1         1 I60       0.057200
     57 H26         18.4260   -15.1510     7.3670 h1         1 I60       0.057200
     58 H27         16.7700   -17.3900     6.9170 h1         1 I60       0.048700
     59 H28         15.3050   -16.0420     8.3720 ho         1 I60       0.457000
     60 H29         15.5470   -16.4610     5.1220 h1         1 I60       0.065700
     61 H30         13.6680   -17.1400     6.6230 hn         1 I60       0.472000
@<TRIPOS>BOND
     1     1     2 1   
     2     1    33 1   
     3     1    34 1   
     4     2     3 1   
     5     2    35 1   
     6     2    36 1   
     7     3     4 1   
     8     3    37 1   
     9     3    38 1   
    10     4     5 1   
    11     4    39 1   
    12     4    40 1   
    13     5     6 2   
    14     5     7 1   
    15     7     8 1   
    16     7    41 1   
    17     8     9 1   
    18     8    20 1   
    19     8    42 1   
    20     9    10 1   
    21     9    11 1   
    22     9    43 1   
    23    10    44 1   
    24    11    12 1   
    25    11    16 1   
    26    11    45 1   
    27    12    13 1   
    28    13    14 1   
    29    13    15 2   
    30    14    46 1   
    31    14    47 1   
    32    16    17 1   
    33    16    19 1   
    34    16    48 1   
    35    17    18 1   
    36    17    49 1   
    37    17    50 1   
    38    18    51 1   
    39    19    20 1   
    40    20    21 1   
    41    20    52 1   
    42    21    22 2   
    43    22    23 1   
    44    22    32 1   
    45    23    24 1   
    46    23    53 1   
    47    24    25 1   
    48    24    31 1   
    49    24    54 1   
    50    25    26 2   
    51    25    27 1   
    52    27    28 1   
    53    27    55 1   
    54    28    29 1   
    55    28    56 1   
    56    28    57 1   
    57    29    30 1   
    58    29    31 1   
    59    29    58 1   
    60    30    59 1   
    61    31    32 1   
    62    31    60 1   
    63    32    61 1   
@<TRIPOS>SUBSTRUCTURE
     1 I60         1 TEMP              0 ****  ****    0 ROOT
