@<TRIPOS>MOLECULE
I61
   87    92     1     0     0
SMALL
abcg2


@<TRIPOS>ATOM
      1 C11          7.4900    14.0370    39.4960 c          1 I61       0.668100
      2 C12          1.9890    11.2730    42.1040 c5         1 I61      -0.052500
      3 C13          8.6290    11.8480    37.1410 c6         1 I61      -0.056200
      4 C14          9.8080    11.8540    38.0930 c2         1 I61      -0.047400
      5 C15         11.1020    12.2790    37.4670 c3         1 I61      -0.058900
      6 C16          9.5840    11.5380    39.3750 c2         1 I61      -0.186400
      7 C21         12.5730     8.3340    40.2760 c3         1 I61       0.162600
      8 C23         14.0690     6.7550    37.2700 c3         1 I61      -0.156100
      9 C25          7.4060    12.4430    37.8140 c5         1 I61       0.177300
     10 C26          6.4710    12.7600    41.5350 c5         1 I61      -0.031500
     11 C27          5.6550    11.4940    41.7790 c2         1 I61      -0.121400
     12 C28          6.2180    10.2140    42.3050 c3         1 I61      -0.047900
     13 C29          4.3930    11.7610    41.4130 c2         1 I61      -0.132400
     14 C31          0.7250    11.0930    44.1320 c          1 I61       0.654300
     15 C33          6.4190    15.9430    42.4470 c          1 I61       0.615100
     16 C34          7.1190    15.3240    43.6220 c3         1 I61      -0.202100
     17 O6          11.8020     7.0170    38.0440 o          1 I61      -0.493000
     18 C22         12.9900     7.1890    38.2180 c          1 I61       0.589100
     19 O5          13.5020     7.8080    39.2910 os         1 I61      -0.455100
     20 C19         11.1470    10.2890    40.9460 c3         1 I61      -0.068400
     21 C17         10.5120    11.6470    40.5740 c3         1 I61      -0.004500
     22 C18         11.5380    12.7850    40.5590 c3         1 I61      -0.085100
     23 C07          8.2160    10.9700    39.7110 c6         1 I61       0.209500
     24 O08          8.0490     9.6280    39.1960 oh         1 I61      -0.674000
     25 O05          7.7560    13.8170    38.1940 os         1 I61      -0.438100
     26 C02          7.0300    11.7610    39.1360 c5         1 I61      -0.081700
     27 C30          6.5500    12.9500    39.9890 c5         1 I61      -0.157000
     28 O03          7.9710    14.9740    40.0820 o          1 I61      -0.479000
     29 C03          5.0710    13.3460    39.6350 c5         1 I61      -0.053400
     30 C32          5.3930    13.7840    41.9580 c5         1 I61       0.190300
     31 O07          5.6380    15.1690    41.6780 os         1 I61      -0.445100
     32 O06          6.5130    17.1160    42.1560 o          1 I61      -0.432000
     33 C8           4.3160    13.2360    40.9940 c5         1 I61      -0.011800
     34 C09          2.9070    13.8490    41.0110 c3         1 I61      -0.029700
     35 C10          2.2440    13.8050    42.4030 c3         1 I61      -0.078400
     36 C01          2.8070    15.2760    40.4640 c3         1 I61      -0.087100
     37 C08          3.2480    10.7980    41.3480 c3         1 I61      -0.004200
     38 C04          2.2680    12.4380    43.0560 c5         1 I61       0.175300
     39 C05          1.3040    10.2960    43.0140 ce         1 I61      -0.227400
     40 C06          1.2020     8.9750    42.9450 c2         1 I61      -0.221000
     41 O01         -0.0660    10.7540    44.9810 o          1 I61      -0.488000
     42 O04          1.2200    12.3470    44.0790 os         1 I61      -0.433100
     43 H1           1.2400    11.6160    41.3830 hc         1 I61       0.075700
     44 H2           8.3840    10.8380    36.8040 hc         1 I61       0.072200
     45 H3           8.8670    12.4320    36.2500 hc         1 I61       0.072200
     46 H5          11.9720    12.0820    38.0820 hc         1 I61       0.049033
     47 H6          11.2340    11.7490    36.5190 hc         1 I61       0.049033
     48 H7          11.0790    13.3470    37.2240 hc         1 I61       0.049033
     49 H9          11.7470     7.6340    40.3910 h1         1 I61       0.060700
     50 H10         13.1490     8.3660    41.1990 h1         1 I61       0.060700
     51 H11         13.6490     6.1180    36.4960 hc         1 I61       0.070700
     52 H12         14.5150     7.6390    36.8090 hc         1 I61       0.070700
     53 H13         14.8590     6.2290    37.8070 hc         1 I61       0.070700
     54 H14          6.5610    12.5050    37.1300 h1         1 I61       0.073700
     55 H15          7.4290    12.8040    42.0440 hc         1 I61       0.085700
     56 H16          5.4520     9.6330    42.8190 hc         1 I61       0.050700
     57 H17          6.6280     9.5830    41.5110 hc         1 I61       0.050700
     58 H18          7.0270    10.4140    43.0100 hc         1 I61       0.050700
     59 H19          7.6390    16.1040    44.1700 hc         1 I61       0.065700
     60 H20          6.4100    14.8240    44.2830 hc         1 I61       0.065700
     61 H21          7.8380    14.5790    43.2820 hc         1 I61       0.065700
     62 H22         12.9410    10.3670    39.7360 hc         1 I61       0.058200
     63 H23         11.5520     9.6450    38.9290 hc         1 I61       0.058200
     64 H24         10.3470     9.5700    41.1500 hc         1 I61       0.038200
     65 H25         11.6930    10.4110    41.8870 hc         1 I61       0.038200
     66 H26          9.8400    11.8830    41.4070 hc         1 I61       0.040700
     67 H27         11.8940    12.9560    41.5770 hc         1 I61       0.041033
     68 H28         12.4110    12.5770    39.9430 hc         1 I61       0.041033
     69 H29         11.0850    13.7100    40.1990 hc         1 I61       0.041033
     70 H30          8.1250    10.9250    40.7940 h1         1 I61       0.045700
     71 H31          8.8810     9.1540    39.3130 ho         1 I61       0.454000
     72 H32          6.2180    11.0520    38.9830 hc         1 I61       0.094700
     73 H33          5.0230    14.3620    39.2490 hc         1 I61       0.067200
     74 H34          4.6440    12.6800    38.8880 hc         1 I61       0.067200
     75 H35          5.1170    13.6670    43.0030 h1         1 I61       0.062700
     76 H36          2.3080    13.2190    40.3450 hc         1 I61       0.045700
     77 H37          2.7150    14.5390    43.0620 hc         1 I61       0.063700
     78 H38          1.1990    14.1010    42.2830 hc         1 I61       0.063700
     79 H39          1.7600    15.5880    40.4620 hc         1 I61       0.045367
     80 H40          3.3700    15.9790    41.0760 hc         1 I61       0.045367
     81 H41          3.1730    15.3470    39.4400 hc         1 I61       0.045367
     82 H42          2.9850    10.6200    40.3020 hc         1 I61       0.057700
     83 H43          3.5740     9.8390    41.7500 hc         1 I61       0.057700
     84 H44          3.2070    12.2640    43.5830 h1         1 I61       0.063700
     85 H45          0.6660     8.4250    43.7080 ha         1 I61       0.181000
     86 H46          1.6510     8.4100    42.1380 ha         1 I61       0.181000
     87 C20         12.0790     9.7130    39.8830 c3         1 I61      -0.106400
@<TRIPOS>BOND
     1     1    25 1   
     2     1    27 1   
     3     1    28 2   
     4     2    37 1   
     5     2    38 1   
     6     2    39 1   
     7     2    43 1   
     8     3     4 1   
     9     3     9 1   
    10     3    44 1   
    11     3    45 1   
    12     4     5 1   
    13     4     6 2   
    14     5    46 1   
    15     5    47 1   
    16     5    48 1   
    17     6    21 1   
    18     6    23 1   
    19     7    19 1   
    20     7    49 1   
    21     7    50 1   
    22     7    87 1   
    23     8    18 1   
    24     8    51 1   
    25     8    52 1   
    26     8    53 1   
    27     9    25 1   
    28     9    26 1   
    29     9    54 1   
    30    10    11 1   
    31    10    27 1   
    32    10    30 1   
    33    10    55 1   
    34    11    12 1   
    35    11    13 2   
    36    12    56 1   
    37    12    57 1   
    38    12    58 1   
    39    13    33 1   
    40    13    37 1   
    41    14    39 1   
    42    14    41 2   
    43    14    42 1   
    44    15    16 1   
    45    15    31 1   
    46    15    32 2   
    47    16    59 1   
    48    16    60 1   
    49    16    61 1   
    50    17    18 2   
    51    18    19 1   
    52    20    21 1   
    53    20    64 1   
    54    20    65 1   
    55    20    87 1   
    56    21    22 1   
    57    21    66 1   
    58    22    67 1   
    59    22    68 1   
    60    22    69 1   
    61    23    24 1   
    62    23    26 1   
    63    23    70 1   
    64    24    71 1   
    65    26    27 1   
    66    26    72 1   
    67    27    29 1   
    68    29    33 1   
    69    29    73 1   
    70    29    74 1   
    71    30    31 1   
    72    30    33 1   
    73    30    75 1   
    74    33    34 1   
    75    34    35 1   
    76    34    36 1   
    77    34    76 1   
    78    35    38 1   
    79    35    77 1   
    80    35    78 1   
    81    36    79 1   
    82    36    80 1   
    83    36    81 1   
    84    37    82 1   
    85    37    83 1   
    86    38    42 1   
    87    38    84 1   
    88    39    40 2   
    89    40    85 1   
    90    40    86 1   
    91    62    87 1   
    92    63    87 1   
@<TRIPOS>SUBSTRUCTURE
     1 I61         1 TEMP              0 ****  ****    0 ROOT
