@<TRIPOS>MOLECULE
I61
   87    92     1     0     0
SMALL
No Charge or Current Charge


@<TRIPOS>ATOM
      1 C11          7.5570    14.0900    39.6300 c          1 I61       0.668100
      2 C12          1.8360    11.2670    42.0810 c5         1 I61      -0.052500
      3 C13          8.5640    11.7910    37.2100 c6         1 I61      -0.056200
      4 C14          9.8000    11.7590    38.1080 c2         1 I61      -0.047400
      5 C15         11.0780    12.1200    37.3650 c3         1 I61      -0.058900
      6 C16          9.6490    11.4830    39.4310 c2         1 I61      -0.186400
      7 C21         13.2040     7.7970    40.2130 c3         1 I61       0.162600
      8 C23         14.3600     6.6010    36.8580 c3         1 I61      -0.156100
      9 C25          7.4120    12.4810    37.9660 c5         1 I61       0.177300
     10 C26          6.3390    12.8400    41.6460 c5         1 I61      -0.031500
     11 C27          5.4870    11.5880    41.8350 c2         1 I61      -0.121400
     12 C28          5.9830    10.3280    42.5240 c3         1 I61      -0.047900
     13 C29          4.2660    11.8430    41.3440 c2         1 I61      -0.132400
     14 C31          0.6140    11.3190    44.5650 c          1 I61       0.654300
     15 C33          6.3280    16.0250    42.5320 c          1 I61       0.615100
     16 C34          6.5770    15.4500    43.9380 c3         1 I61      -0.202100
     17 O6          12.1540     6.9910    37.7840 o          1 I61      -0.493000
     18 C22         13.3670     7.0010    37.9410 c          1 I61       0.589100
     19 O5          14.0030     7.3560    39.1010 os         1 I61      -0.455100
     20 C19         11.4440    10.2390    40.8290 c3         1 I61      -0.068400
     21 C17         10.7090    11.5790    40.5490 c3         1 I61      -0.004500
     22 C18         11.6490    12.8080    40.4660 c3         1 I61      -0.085100
     23 C07          8.2770    11.0090    39.9350 c6         1 I61       0.209500
     24 O08          8.1880     9.6220    39.6070 oh         1 I61      -0.674000
     25 O05          7.8510    13.8230    38.3240 os         1 I61      -0.438100
     26 C02          7.0530    11.7720    39.3190 c5         1 I61      -0.081700
     27 C30          6.5360    13.0370    40.0870 c5         1 I61      -0.157000
     28 O03          8.1140    14.9640    40.2750 o          1 I61      -0.479000
     29 C03          5.0690    13.3960    39.5930 c5         1 I61      -0.053400
     30 C32          5.2340    13.9000    41.9760 c5         1 I61       0.190300
     31 O07          5.6050    15.2650    41.6270 os         1 I61      -0.445100
     32 O06          6.7210    17.1420    42.2370 o          1 I61      -0.432000
     33 C8           4.2250    13.3220    40.9270 c5         1 I61      -0.011800
     34 C09          2.7830    13.9490    40.8920 c3         1 I61      -0.029700
     35 C10          2.0360    13.9020    42.2620 c3         1 I61      -0.078400
     36 C01          2.7060    15.3920    40.3290 c3         1 I61      -0.087100
     37 C08          3.0830    10.8850    41.2340 c3         1 I61      -0.004200
     38 C04          2.0630    12.5530    43.0160 c5         1 I61       0.175300
     39 C05          1.3240    10.1630    43.0180 ce         1 I61      -0.227400
     40 C06          1.2140     8.8240    42.9260 c2         1 I61      -0.221000
     41 O01         -0.0900    11.0300    45.5210 o          1 I61      -0.488000
     42 O04          1.0300    12.5790    44.1370 os         1 I61      -0.433100
     43 H1           1.0360    11.4930    41.3680 hc         1 I61       0.075700
     44 H2           8.2800    10.7730    36.9080 hc         1 I61       0.072200
     45 H3           8.7600    12.3520    36.2860 hc         1 I61       0.072200
     46 H5          11.9840    11.8190    37.8910 hc         1 I61       0.049033
     47 H6          11.1180    11.6130    36.3940 hc         1 I61       0.049033
     48 H7          11.1320    13.1990    37.1780 hc         1 I61       0.049033
     49 H9          12.4290     7.0610    40.4650 h1         1 I61       0.060700
     50 H10         13.8330     7.9460    41.1000 h1         1 I61       0.060700
     51 H11         13.8700     6.3050    35.9250 hc         1 I61       0.070700
     52 H12         15.0660     7.4250    36.7060 hc         1 I61       0.070700
     53 H13         15.0090     5.8090    37.2490 hc         1 I61       0.070700
     54 H14          6.5350    12.5620    37.3090 h1         1 I61       0.073700
     55 H15          7.2430    12.8800    42.2630 hc         1 I61       0.085700
     56 H16          5.1600     9.6790    42.8420 hc         1 I61       0.050700
     57 H17          6.6300     9.7350    41.8710 hc         1 I61       0.050700
     58 H18          6.5540    10.5790    43.4250 hc         1 I61       0.050700
     59 H19          7.1760    16.1310    44.5520 hc         1 I61       0.065700
     60 H20          5.6160    15.2510    44.4230 hc         1 I61       0.065700
     61 H21          7.0460    14.4640    43.8810 hc         1 I61       0.065700
     62 H22         13.0910    10.3780    39.4140 hc         1 I61       0.058200
     63 H23         11.6710     9.5250    38.7890 hc         1 I61       0.058200
     64 H24         10.7040     9.4810    41.1130 hc         1 I61       0.038200
     65 H25         12.0920    10.3670    41.7050 hc         1 I61       0.038200
     66 H26         10.1620    11.7870    41.4770 hc         1 I61       0.040700
     67 H27         12.0740    13.0220    41.4540 hc         1 I61       0.041033
     68 H28         12.4930    12.6550    39.7880 hc         1 I61       0.041033
     69 H29         11.0950    13.6970    40.1430 hc         1 I61       0.041033
     70 H30          8.2320    11.1060    41.0270 h1         1 I61       0.045700
     71 H31          9.1150     9.3080    39.5610 ho         1 I61       0.454000
     72 H32          6.2610    11.0250    39.1900 hc         1 I61       0.094700
     73 H33          5.0490    14.3950    39.1440 hc         1 I61       0.067200
     74 H34          4.6700    12.7110    38.8350 hc         1 I61       0.067200
     75 H35          4.8310    13.8300    42.9940 h1         1 I61       0.062700
     76 H36          2.1940    13.3450    40.1910 hc         1 I61       0.045700
     77 H37          2.4470    14.6770    42.9200 hc         1 I61       0.063700
     78 H38          0.9900    14.1820    42.0870 hc         1 I61       0.063700
     79 H39          1.6650    15.7370    40.3020 hc         1 I61       0.045367
     80 H40          3.2710    16.0970    40.9480 hc         1 I61       0.045367
     81 H41          3.0850    15.4450    39.3030 hc         1 I61       0.045367
     82 H42          2.7880    10.8170    40.1800 hc         1 I61       0.057700
     83 H43          3.4000     9.8690    41.4900 hc         1 I61       0.057700
     84 H44          3.0390    12.4550    43.5100 h1         1 I61       0.063700
     85 H45          0.7580     8.2570    43.7370 ha         1 I61       0.181000
     86 H46          1.5620     8.2700    42.0580 ha         1 I61       0.181000
     87 C20         12.2960     9.6710    39.6770 c3         1 I61      -0.106400
@<TRIPOS>BOND
     1     1    25 1   
     2     1    27 1   
     3     1    28 2   
     4     2    37 1   
     5     2    38 1   
     6     2    39 1   
     7     2    43 1   
     8     3     4 1   
     9     3     9 1   
    10     3    44 1   
    11     3    45 1   
    12     4     5 1   
    13     4     6 2   
    14     5    46 1   
    15     5    47 1   
    16     5    48 1   
    17     6    21 1   
    18     6    23 1   
    19     7    19 1   
    20     7    49 1   
    21     7    50 1   
    22     7    87 1   
    23     8    18 1   
    24     8    51 1   
    25     8    52 1   
    26     8    53 1   
    27     9    25 1   
    28     9    26 1   
    29     9    54 1   
    30    10    11 1   
    31    10    27 1   
    32    10    30 1   
    33    10    55 1   
    34    11    12 1   
    35    11    13 2   
    36    12    56 1   
    37    12    57 1   
    38    12    58 1   
    39    13    33 1   
    40    13    37 1   
    41    14    39 1   
    42    14    41 2   
    43    14    42 1   
    44    15    16 1   
    45    15    31 1   
    46    15    32 2   
    47    16    59 1   
    48    16    60 1   
    49    16    61 1   
    50    17    18 2   
    51    18    19 1   
    52    20    21 1   
    53    20    64 1   
    54    20    65 1   
    55    20    87 1   
    56    21    22 1   
    57    21    66 1   
    58    22    67 1   
    59    22    68 1   
    60    22    69 1   
    61    23    24 1   
    62    23    26 1   
    63    23    70 1   
    64    24    71 1   
    65    26    27 1   
    66    26    72 1   
    67    27    29 1   
    68    29    33 1   
    69    29    73 1   
    70    29    74 1   
    71    30    31 1   
    72    30    33 1   
    73    30    75 1   
    74    33    34 1   
    75    34    35 1   
    76    34    36 1   
    77    34    76 1   
    78    35    38 1   
    79    35    77 1   
    80    35    78 1   
    81    36    79 1   
    82    36    80 1   
    83    36    81 1   
    84    37    82 1   
    85    37    83 1   
    86    38    42 1   
    87    38    84 1   
    88    39    40 2   
    89    40    85 1   
    90    40    86 1   
    91    62    87 1   
    92    63    87 1   
@<TRIPOS>SUBSTRUCTURE
     1 I61         1 TEMP              0 ****  ****    0 ROOT
