@<TRIPOS>MOLECULE
I62
   43    43     1     0     0
SMALL
abcg2


@<TRIPOS>ATOM
      1 C20         36.5450    22.5190    10.6890 ca         1 I62       0.036000
      2 C21         37.7330    22.2030    11.3260 ca         1 I62      -0.139000
      3 C01         39.6910    20.7830    11.8500 c3         1 I62      -0.076800
      4 C02         38.4340    21.0280    11.0780 ca         1 I62       0.060700
      5 C03         37.8360    20.1750    10.1230 ca         1 I62       0.069000
      6 C07         36.6310    20.4750     9.4790 ca         1 I62       0.021000
      7 C08         35.9710    21.6500     9.7600 ca         1 I62      -0.148600
      8 C09         34.7100    21.9340     8.9920 c          1 I62       0.607700
      9 C11         32.6430    23.2570     8.8710 c3         1 I62       0.167200
     10 C12         31.4770    22.4540     9.3550 c2         1 I62      -0.429200
     11 C13         30.5000    23.0230    10.0860 c2         1 I62       0.084000
     12 C15         28.3430    23.3660    11.1130 c3         1 I62       0.220300
     13 C16         28.4680    23.7070    12.5910 c3         1 I62      -0.107100
     14 C17         29.0470    21.0790    10.4140 c3         1 I62       0.220300
     15 C18         28.4130    20.4050    11.6210 c3         1 I62      -0.107100
     16 N04         38.4020    18.9400     9.7380 nh         1 I62       0.248300
     17 N10         33.9110    22.8830     9.4890 ns         1 I62      -0.477900
     18 N14         29.3840    22.4700    10.6360 nh         1 I62      -0.685400
     19 O05         37.8160    18.0960     9.1610 o          1 I62      -0.152000
     20 O06         39.6520    18.7870    10.0410 oh         1 I62      -0.360300
     21 O19         34.4770    21.3110     7.9660 o          1 I62      -0.576100
     22 H1          36.0870    23.4700    10.9260 ha         1 I62       0.154000
     23 H2          38.1370    22.8990    12.0480 ha         1 I62       0.159000
     24 H3          40.5720    20.8400    11.2110 hc         1 I62       0.081700
     25 H4          39.7890    21.5440    12.6190 hc         1 I62       0.081700
     26 H5          39.6960    19.8100    12.3400 hc         1 I62       0.081700
     27 H6          36.2190    19.8070     8.7350 ha         1 I62       0.188000
     28 H7          32.7720    23.1650     7.7920 h1         1 I62       0.062200
     29 H8          32.4880    24.3170     9.0800 h1         1 I62       0.062200
     30 H9          31.4640    21.4040     9.0900 ha         1 I62       0.188000
     31 H10         30.5840    24.0880    10.2900 h4         1 I62       0.171000
     32 H11         28.3630    24.2860    10.5240 h1         1 I62       0.045950
     33 H12         27.3710    22.9120    10.9120 h1         1 I62       0.045950
     34 H13         27.6700    24.3840    12.8980 hc         1 I62       0.043033
     35 H14         28.4100    22.8120    13.2110 hc         1 I62       0.043033
     36 H15         29.4210    24.1970    12.7960 hc         1 I62       0.043033
     37 H16         29.9620    20.5430    10.1670 h1         1 I62       0.045950
     38 H17         28.3830    20.9790     9.5450 h1         1 I62       0.045950
     39 H18         28.2120    19.3590    11.3870 hc         1 I62       0.043033
     40 H19         29.0770    20.4370    12.4840 hc         1 I62       0.043033
     41 H20         27.4640    20.8600    11.9040 hc         1 I62       0.043033
     42 H21         34.0680    23.2270    10.4230 hn         1 I62       0.307500
     43 H22         39.9330    17.8830     9.7710 ho         1 I62       0.547000
@<TRIPOS>BOND
     1     1     2 ar  
     2     1     7 ar  
     3     1    22 1   
     4     2     4 ar  
     5     2    23 1   
     6     3     4 1   
     7     3    24 1   
     8     3    25 1   
     9     3    26 1   
    10     4     5 ar  
    11     5     6 ar  
    12     5    16 1   
    13     6     7 ar  
    14     6    27 1   
    15     7     8 1   
    16     8    17 1   
    17     8    21 2   
    18     9    10 1   
    19     9    17 1   
    20     9    28 1   
    21     9    29 1   
    22    10    11 2   
    23    10    30 1   
    24    11    18 1   
    25    11    31 1   
    26    12    13 1   
    27    12    18 1   
    28    12    32 1   
    29    12    33 1   
    30    13    34 1   
    31    13    35 1   
    32    13    36 1   
    33    14    15 1   
    34    14    18 1   
    35    14    37 1   
    36    14    38 1   
    37    15    39 1   
    38    15    40 1   
    39    15    41 1   
    40    16    19 1   
    41    16    20 1   
    42    17    42 1   
    43    20    43 1   
@<TRIPOS>SUBSTRUCTURE
     1 I62         1 TEMP              0 ****  ****    0 ROOT
