@<TRIPOS>MOLECULE
I62
   43    43     1     0     0
SMALL
No Charge or Current Charge


@<TRIPOS>ATOM
      1 C20         35.5580    20.8480    10.8240 ca         1 I62       0.036000
      2 C21         36.6100    20.4990    11.6850 ca         1 I62      -0.139000
      3 C01         39.0200    20.0440    12.2370 c3         1 I62      -0.076800
      4 C02         37.9470    20.4900    11.2420 ca         1 I62       0.060700
      5 C03         38.2410    20.8520     9.8970 ca         1 I62       0.069000
      6 C07         37.1660    21.1890     9.0390 ca         1 I62       0.021000
      7 C08         35.8250    21.1940     9.4830 ca         1 I62      -0.148600
      8 C09         34.7290    21.5730     8.5120 c          1 I62       0.607700
      9 C11         32.2690    21.9010     8.1910 c3         1 I62       0.167200
     10 C12         31.0550    21.8060     9.0770 c2         1 I62      -0.429200
     11 C13         30.6820    22.7440     9.9600 c2         1 I62       0.084000
     12 C15         28.8800    23.8880    11.2170 c3         1 I62       0.220300
     13 C16         29.5440    24.5230    12.4520 c3         1 I62      -0.107100
     14 C17         28.7980    21.3630    10.9310 c3         1 I62       0.220300
     15 C18         28.0630    21.1690    12.2750 c3         1 I62      -0.107100
     16 N04         39.5700    20.8870     9.3770 nh         1 I62       0.248300
     17 N10         33.4360    21.5610     8.9860 ns         1 I62      -0.477900
     18 N14         29.5500    22.6410    10.7680 nh         1 I62      -0.685400
     19 O05         39.7430    20.5480     8.1690 o          1 I62      -0.152000
     20 O06         40.5250    21.5610    10.1570 oh         1 I62      -0.360300
     21 O19         34.9720    21.8800     7.3530 o          1 I62      -0.576100
     22 H1          34.5450    20.8370    11.2200 ha         1 I62       0.154000
     23 H2          36.3760    20.2260    12.7120 ha         1 I62       0.159000
     24 H3          39.5770    20.9020    12.6310 hc         1 I62       0.081700
     25 H4          38.5820    19.5220    13.0970 hc         1 I62       0.081700
     26 H5          39.7310    19.3470    11.7790 hc         1 I62       0.081700
     27 H6          37.3810    21.4680     8.0080 ha         1 I62       0.188000
     28 H7          32.1890    21.2030     7.3460 h1         1 I62       0.062200
     29 H8          32.3810    22.9200     7.7940 h1         1 I62       0.062200
     30 H9          30.4780    20.8950     8.9250 ha         1 I62       0.188000
     31 H10         31.2550    23.6680    10.0830 h4         1 I62       0.171000
     32 H11         28.8880    24.6190    10.3970 h1         1 I62       0.045950
     33 H12         27.8240    23.7080    11.4500 h1         1 I62       0.045950
     34 H13         29.0130    25.4380    12.7390 hc         1 I62       0.043033
     35 H14         29.5210    23.8300    13.3010 hc         1 I62       0.043033
     36 H15         30.5880    24.7820    12.2430 hc         1 I62       0.043033
     37 H16         29.5100    20.5290    10.8680 h1         1 I62       0.045950
     38 H17         28.0880    21.2410    10.1030 h1         1 I62       0.045950
     39 H18         27.6760    20.1460    12.3430 hc         1 I62       0.043033
     40 H19         28.7470    21.3300    13.1170 hc         1 I62       0.043033
     41 H20         27.2110    21.8500    12.3760 hc         1 I62       0.043033
     42 H21         33.2860    21.2990     9.9490 hn         1 I62       0.307500
     43 H22         41.1940    20.8470    10.2200 ho         1 I62       0.547000
@<TRIPOS>BOND
     1     1     2 ar  
     2     1     7 ar  
     3     1    22 1   
     4     2     4 ar  
     5     2    23 1   
     6     3     4 1   
     7     3    24 1   
     8     3    25 1   
     9     3    26 1   
    10     4     5 ar  
    11     5     6 ar  
    12     5    16 1   
    13     6     7 ar  
    14     6    27 1   
    15     7     8 1   
    16     8    17 1   
    17     8    21 2   
    18     9    10 1   
    19     9    17 1   
    20     9    28 1   
    21     9    29 1   
    22    10    11 2   
    23    10    30 1   
    24    11    18 1   
    25    11    31 1   
    26    12    13 1   
    27    12    18 1   
    28    12    32 1   
    29    12    33 1   
    30    13    34 1   
    31    13    35 1   
    32    13    36 1   
    33    14    15 1   
    34    14    18 1   
    35    14    37 1   
    36    14    38 1   
    37    15    39 1   
    38    15    40 1   
    39    15    41 1   
    40    16    19 1   
    41    16    20 1   
    42    17    42 1   
    43    20    43 1   
@<TRIPOS>SUBSTRUCTURE
     1 I62         1 TEMP              0 ****  ****    0 ROOT
