@<TRIPOS>MOLECULE
I63
   82    84     1     0     0
SMALL
No Charge or Current Charge


@<TRIPOS>ATOM
      1 O42          3.5430    -8.0250     0.0290 o          1 I63      -0.713500
      2 C40          3.0610    -6.9960    -0.4270 c          1 I63       0.729000
      3 O41          3.2260    -6.6410    -1.5880 o          1 I63      -0.713500
      4 C39          2.2040    -6.1170     0.5330 c3         1 I63       0.002600
      5 O38          1.6820    -4.9230    -0.0990 os         1 I63      -0.294100
      6 C26          0.8950    -4.0140     0.5790 ca         1 I63       0.170100
      7 C25          0.4370    -2.8860    -0.1230 ca         1 I63      -0.134000
      8 C27          0.5400    -4.1810     1.9360 ca         1 I63      -0.206000
      9 C28         -0.2640    -3.2220     2.5730 ca         1 I63      -0.085000
     10 C29         -0.7170    -2.0980     1.8650 ca         1 I63      -0.150000
     11 C24         -0.3710    -1.9200     0.5090 ca         1 I63      -0.089300
     12 C15         -0.8570    -0.6950    -0.2710 c3         1 I63       0.230600
     13 C16         -2.3910    -0.6960    -0.4580 c3         1 I63      -0.074400
     14 C17         -2.9130     0.4680    -1.3310 c3         1 I63      -0.029100
     15 C18         -4.4250     0.4160    -1.5030 ca         1 I63      -0.069300
     16 C23         -4.9900    -0.1940    -2.6370 ca         1 I63      -0.106000
     17 C22         -6.3840    -0.2490    -2.7960 ca         1 I63      -0.167000
     18 C21         -7.2350     0.3090    -1.8140 ca         1 I63       0.101100
     19 O34         -8.6140     0.2720    -1.9380 os         1 I63      -0.326100
     20 C35         -9.2730    -0.3310    -3.0660 c3         1 I63       0.147900
     21 C20         -6.6710     0.9220    -0.6690 ca         1 I63       0.108100
     22 O36         -7.5230     1.4610     0.2830 os         1 I63      -0.328100
     23 C37         -7.0420     2.1000     1.4780 c3         1 I63       0.146900
     24 C19         -5.2650     0.9710    -0.5210 ca         1 I63      -0.166000
     25 O1          -0.5190     0.4970     0.4600 os         1 I63      -0.445100
     26 C1           0.7910     0.9100     0.4920 c          1 I63       0.617100
     27 O2           1.7010     0.3000    -0.0570 o          1 I63      -0.463000
     28 C2           1.0210     2.1560     1.4090 c6         1 I63       0.035700
     29 N7           2.4230     2.7340     1.3400 n          1 I63      -0.365800
     30 C6           2.6290     4.1430     0.8760 c6         1 I63       0.097000
     31 C5           1.3660     4.9390     0.5010 c6         1 I63      -0.111400
     32 C4           0.2300     4.6290     1.4800 c6         1 I63      -0.076400
     33 C3          -0.1720     3.1620     1.2790 c6         1 I63      -0.092400
     34 C8           3.5370     1.9590     1.7710 c          1 I63       0.495100
     35 O3           3.3680     0.8820     2.3380 o          1 I63      -0.539100
     36 C9           5.0120     2.5310     1.5480 c          1 I63       0.513100
     37 O4           5.4420     3.4220     2.2810 o          1 I63      -0.496100
     38 C10          5.8670     1.9220     0.3770 c3         1 I63      -0.126000
     39 C13          6.0890     0.4050     0.6500 c3         1 I63      -0.087100
     40 C14          5.0870     2.0870    -0.9610 c3         1 I63      -0.087100
     41 C11          7.2470     2.6670     0.2950 c3         1 I63      -0.066400
     42 C12          8.2230     2.2210    -0.8210 c3         1 I63      -0.087100
     43 H2           1.3780    -6.7390     0.9020 h1         1 I63       0.015700
     44 H3           2.8360    -5.8450     1.3880 h1         1 I63       0.015700
     45 H4           0.7180    -2.7650    -1.1660 ha         1 I63       0.129000
     46 H5           0.8780    -5.0420     2.5050 ha         1 I63       0.119000
     47 H6          -0.5370    -3.3500     3.6190 ha         1 I63       0.091000
     48 H7          -1.3360    -1.3610     2.3710 ha         1 I63       0.105000
     49 H8          -0.3930    -0.6830    -1.2670 h1         1 I63       0.066700
     50 H9          -2.6860    -1.6450    -0.9210 hc         1 I63       0.061700
     51 H10         -2.8780    -0.6600     0.5230 hc         1 I63       0.061700
     52 H11         -2.6250     1.4240    -0.8770 hc         1 I63       0.047700
     53 H12         -2.4180     0.4350    -2.3100 hc         1 I63       0.047700
     54 H13         -4.3460    -0.6300    -3.3980 ha         1 I63       0.117000
     55 H14         -6.7840    -0.7280    -3.6850 ha         1 I63       0.115000
     56 H15        -10.3610    -0.2470    -2.9590 h1         1 I63       0.036033
     57 H16         -8.9840     0.1690    -3.9990 h1         1 I63       0.036033
     58 H17         -9.0190    -1.3960    -3.1420 h1         1 I63       0.036033
     59 H18         -7.8850     2.4510     2.0860 h1         1 I63       0.037700
     60 H19         -6.4530     1.4000     2.0850 h1         1 I63       0.037700
     61 H20         -6.4160     2.9680     1.2320 h1         1 I63       0.037700
     62 H21         -4.8100     1.4340     0.3490 ha         1 I63       0.121000
     63 H22          0.9230     1.7410     2.4220 h1         1 I63       0.068700
     64 H23          3.1320     4.6880     1.6880 h1         1 I63       0.057700
     65 H24          3.3140     4.1520     0.0170 h1         1 I63       0.057700
     66 H25          1.5920     6.0140     0.5050 hc         1 I63       0.046200
     67 H26          1.0590     4.6900    -0.5250 hc         1 I63       0.046200
     68 H27          0.5490     4.8080     2.5160 hc         1 I63       0.040700
     69 H28         -0.6300     5.2850     1.2870 hc         1 I63       0.040700
     70 H29         -0.6180     3.0760     0.2770 hc         1 I63       0.070200
     71 H30         -0.9700     2.8890     1.9820 hc         1 I63       0.070200
     72 H31          5.1380    -0.1390     0.6950 hc         1 I63       0.047200
     73 H32          6.6810    -0.0650    -0.1440 hc         1 I63       0.047200
     74 H33          6.6140     0.2510     1.6010 hc         1 I63       0.047200
     75 H34          4.9810     3.1460    -1.2250 hc         1 I63       0.047200
     76 H35          5.6040     1.5850    -1.7880 hc         1 I63       0.047200
     77 H36          4.0840     1.6490    -0.8990 hc         1 I63       0.047200
     78 H37          7.0650     3.7420     0.1640 hc         1 I63       0.044700
     79 H38          7.7690     2.5610     1.2550 hc         1 I63       0.044700
     80 H39          7.7870     2.3610    -1.8170 hc         1 I63       0.031700
     81 H40          9.1390     2.8220    -0.7750 hc         1 I63       0.031700
     82 H41          8.5130     1.1710    -0.7080 hc         1 I63       0.031700
@<TRIPOS>BOND
     1     1     2 1   
     2     2     3 1   
     3     2     4 1   
     4     4     5 1   
     5     4    43 1   
     6     4    44 1   
     7     5     6 1   
     8     6     7 ar  
     9     6     8 ar  
    10     7    11 ar  
    11     7    45 1   
    12     8     9 ar  
    13     8    46 1   
    14     9    10 ar  
    15     9    47 1   
    16    10    11 ar  
    17    10    48 1   
    18    11    12 1   
    19    12    13 1   
    20    12    25 1   
    21    12    49 1   
    22    13    14 1   
    23    13    50 1   
    24    13    51 1   
    25    14    15 1   
    26    14    52 1   
    27    14    53 1   
    28    15    16 ar  
    29    15    24 ar  
    30    16    17 ar  
    31    16    54 1   
    32    17    18 ar  
    33    17    55 1   
    34    18    19 1   
    35    18    21 ar  
    36    19    20 1   
    37    20    56 1   
    38    20    57 1   
    39    20    58 1   
    40    21    22 1   
    41    21    24 ar  
    42    22    23 1   
    43    23    59 1   
    44    23    60 1   
    45    23    61 1   
    46    24    62 1   
    47    25    26 1   
    48    26    27 2   
    49    26    28 1   
    50    28    29 1   
    51    28    33 1   
    52    28    63 1   
    53    29    30 1   
    54    29    34 1   
    55    30    31 1   
    56    30    64 1   
    57    30    65 1   
    58    31    32 1   
    59    31    66 1   
    60    31    67 1   
    61    32    33 1   
    62    32    68 1   
    63    32    69 1   
    64    33    70 1   
    65    33    71 1   
    66    34    35 2   
    67    34    36 1   
    68    36    37 2   
    69    36    38 1   
    70    38    39 1   
    71    38    40 1   
    72    38    41 1   
    73    39    72 1   
    74    39    73 1   
    75    39    74 1   
    76    40    75 1   
    77    40    76 1   
    78    40    77 1   
    79    41    42 1   
    80    41    78 1   
    81    41    79 1   
    82    42    80 1   
    83    42    81 1   
    84    42    82 1   
@<TRIPOS>SUBSTRUCTURE
     1 I63         1 TEMP              0 ****  ****    0 ROOT
