@<TRIPOS>MOLECULE
I63
   82    84     1     0     0
SMALL
abcg2


@<TRIPOS>ATOM
      1 O42          3.6400    -7.7790    -1.2950 o          1 I63      -0.713500
      2 C40          2.8410    -6.9220    -1.7200 c          1 I63       0.729000
      3 O41          2.2750    -6.8850    -2.8220 o          1 I63      -0.713500
      4 C39          2.5640    -5.7910    -0.7150 c3         1 I63       0.002600
      5 O38          1.6320    -4.8680    -1.2440 os         1 I63      -0.294100
      6 C26          1.3270    -3.7730    -0.5280 ca         1 I63       0.170100
      7 C25          0.4480    -2.8690    -1.1360 ca         1 I63      -0.134000
      8 C27          1.8230    -3.4860     0.7410 ca         1 I63      -0.206000
      9 C28          1.4360    -2.3100     1.3780 ca         1 I63      -0.085000
     10 C29          0.5650    -1.4220     0.7780 ca         1 I63      -0.150000
     11 C24          0.0680    -1.7050    -0.4940 ca         1 I63      -0.089300
     12 C15         -0.8980    -0.7670    -1.1690 c3         1 I63       0.230600
     13 C16         -2.2140    -0.6510    -0.4170 c3         1 I63      -0.074400
     14 C17         -3.2490     0.2190    -1.1340 c3         1 I63      -0.029100
     15 C18         -4.5610     0.2300    -0.4020 ca         1 I63      -0.069300
     16 C23         -5.5790    -0.6430    -0.7380 ca         1 I63      -0.106000
     17 C22         -6.7760    -0.6570    -0.0220 ca         1 I63      -0.167000
     18 C21         -6.9690     0.2040     1.0440 ca         1 I63       0.101100
     19 O34         -8.0850     0.2710     1.7980 os         1 I63      -0.326100
     20 C35         -9.1390    -0.6190     1.4980 c3         1 I63       0.147900
     21 C20         -5.9380     1.0990     1.3980 ca         1 I63       0.108100
     22 O36         -6.2030     1.9040     2.4450 os         1 I63      -0.328100
     23 C37         -5.2080     2.8210     2.8500 c3         1 I63       0.146900
     24 C19         -4.7560     1.1020     0.6760 ca         1 I63      -0.166000
     25 O1          -0.3300     0.5520    -1.2310 os         1 I63      -0.445100
     26 C1           0.4590     0.8730    -2.2480 c          1 I63       0.617100
     27 O2           0.6490     0.1880    -3.2170 o          1 I63      -0.463000
     28 C2           0.9600     2.3000    -2.0970 c6         1 I63       0.035700
     29 N7           1.5600     2.5430    -0.7910 n          1 I63      -0.365800
     30 C6           1.7530     3.9630    -0.5160 c6         1 I63       0.097000
     31 C5           2.6600     4.5750    -1.5800 c6         1 I63      -0.111400
     32 C4           2.1700     4.2660    -2.9920 c6         1 I63      -0.076400
     33 C3           1.8920     2.7770    -3.2000 c6         1 I63      -0.092400
     34 C8           2.3390     1.5850    -0.2580 c          1 I63       0.495100
     35 O3           2.5400     0.5040    -0.7850 o          1 I63      -0.539100
     36 C9           2.8520     1.7970     1.1690 c          1 I63       0.513100
     37 O4           2.0180     1.9410     2.0300 o          1 I63      -0.496100
     38 C10          4.3400     1.6670     1.4550 c3         1 I63      -0.126000
     39 C13          4.6080     0.1700     1.7010 c3         1 I63      -0.087100
     40 C14          5.1630     2.1670     0.2660 c3         1 I63      -0.087100
     41 C11          4.6570     2.4880     2.7200 c3         1 I63      -0.066400
     42 C12          6.1190     2.4750     3.1490 c3         1 I63      -0.087100
     43 H2           2.1910    -6.2260     0.2200 h1         1 I63       0.015700
     44 H3           3.5110    -5.2910    -0.4770 h1         1 I63       0.015700
     45 H4           0.0700    -3.0900    -2.1280 ha         1 I63       0.129000
     46 H5           2.5070    -4.1550     1.2450 ha         1 I63       0.119000
     47 H6           1.8340    -2.0920     2.3600 ha         1 I63       0.091000
     48 H7           0.2890    -0.5070     1.2880 ha         1 I63       0.105000
     49 H8          -1.0990    -1.1220    -2.1840 h1         1 I63       0.066700
     50 H9          -2.6120    -1.6620    -0.3010 hc         1 I63       0.061700
     51 H10         -2.0380    -0.2700     0.5930 hc         1 I63       0.061700
     52 H11         -2.8700     1.2390    -1.2340 hc         1 I63       0.047700
     53 H12         -3.3980    -0.1630    -2.1480 hc         1 I63       0.047700
     54 H13         -5.4550    -1.3270    -1.5690 ha         1 I63       0.117000
     55 H14         -7.5510    -1.3520    -0.3170 ha         1 I63       0.115000
     56 H15         -9.9320    -0.4110     2.2120 h1         1 I63       0.036033
     57 H16         -9.5290    -0.4680     0.4870 h1         1 I63       0.036033
     58 H17         -8.8340    -1.6630     1.6030 h1         1 I63       0.036033
     59 H18         -5.6100     3.3550     3.7080 h1         1 I63       0.037700
     60 H19         -4.2850     2.3180     3.1500 h1         1 I63       0.037700
     61 H20         -4.9750     3.5440     2.0640 h1         1 I63       0.037700
     62 H21         -3.9600     1.7880     0.9370 ha         1 I63       0.121000
     63 H22          0.0570     2.9240    -2.1250 h1         1 I63       0.068700
     64 H23          0.7730     4.4460    -0.5180 h1         1 I63       0.057700
     65 H24          2.1690     4.1080     0.4800 h1         1 I63       0.057700
     66 H25          2.7120     5.6550    -1.4250 hc         1 I63       0.046200
     67 H26          3.6740     4.1890    -1.4470 hc         1 I63       0.046200
     68 H27          1.2470     4.8240    -3.1840 hc         1 I63       0.040700
     69 H28          2.9010     4.6150    -3.7230 hc         1 I63       0.040700
     70 H29          2.8180     2.1970    -3.1820 hc         1 I63       0.070200
     71 H30          1.4310     2.6180    -4.1760 hc         1 I63       0.070200
     72 H31          4.3430    -0.4360     0.8370 hc         1 I63       0.047200
     73 H32          5.6660     0.0130     1.9100 hc         1 I63       0.047200
     74 H33          4.0390    -0.1930     2.5580 hc         1 I63       0.047200
     75 H34          5.0520     3.2440     0.1270 hc         1 I63       0.047200
     76 H35          6.2220     1.9690     0.4280 hc         1 I63       0.047200
     77 H36          4.8930     1.6710    -0.6660 hc         1 I63       0.047200
     78 H37          4.3530     3.5260     2.5500 hc         1 I63       0.044700
     79 H38          4.0460     2.1220     3.5470 hc         1 I63       0.044700
     80 H39          6.7810     2.8790     2.3830 hc         1 I63       0.031700
     81 H40          6.2450     3.0910     4.0400 hc         1 I63       0.031700
     82 H41          6.4680     1.4730     3.3990 hc         1 I63       0.031700
@<TRIPOS>BOND
     1     1     2 1   
     2     2     3 1   
     3     2     4 1   
     4     4     5 1   
     5     4    43 1   
     6     4    44 1   
     7     5     6 1   
     8     6     7 ar  
     9     6     8 ar  
    10     7    11 ar  
    11     7    45 1   
    12     8     9 ar  
    13     8    46 1   
    14     9    10 ar  
    15     9    47 1   
    16    10    11 ar  
    17    10    48 1   
    18    11    12 1   
    19    12    13 1   
    20    12    25 1   
    21    12    49 1   
    22    13    14 1   
    23    13    50 1   
    24    13    51 1   
    25    14    15 1   
    26    14    52 1   
    27    14    53 1   
    28    15    16 ar  
    29    15    24 ar  
    30    16    17 ar  
    31    16    54 1   
    32    17    18 ar  
    33    17    55 1   
    34    18    19 1   
    35    18    21 ar  
    36    19    20 1   
    37    20    56 1   
    38    20    57 1   
    39    20    58 1   
    40    21    22 1   
    41    21    24 ar  
    42    22    23 1   
    43    23    59 1   
    44    23    60 1   
    45    23    61 1   
    46    24    62 1   
    47    25    26 1   
    48    26    27 2   
    49    26    28 1   
    50    28    29 1   
    51    28    33 1   
    52    28    63 1   
    53    29    30 1   
    54    29    34 1   
    55    30    31 1   
    56    30    64 1   
    57    30    65 1   
    58    31    32 1   
    59    31    66 1   
    60    31    67 1   
    61    32    33 1   
    62    32    68 1   
    63    32    69 1   
    64    33    70 1   
    65    33    71 1   
    66    34    35 2   
    67    34    36 1   
    68    36    37 2   
    69    36    38 1   
    70    38    39 1   
    71    38    40 1   
    72    38    41 1   
    73    39    72 1   
    74    39    73 1   
    75    39    74 1   
    76    40    75 1   
    77    40    76 1   
    78    40    77 1   
    79    41    42 1   
    80    41    78 1   
    81    41    79 1   
    82    42    80 1   
    83    42    81 1   
    84    42    82 1   
@<TRIPOS>SUBSTRUCTURE
     1 I63         1 TEMP              0 ****  ****    0 ROOT
