@<TRIPOS>MOLECULE
I64
   75    75     1     0     0
SMALL
No Charge or Current Charge


@<TRIPOS>ATOM
      1 N           -7.8800   -17.6470   -18.3640 ns         1 I64      -0.492900
      2 C           -7.1060   -23.3440   -20.5100 ca         1 I64      -0.099000
      3 O           -6.0540   -18.8950   -18.4720 os         1 I64      -0.453100
      4 C1          -6.5340   -22.4660   -21.4460 ca         1 I64      -0.115500
      5 C10         -9.8870   -13.1680   -17.9050 c3         1 I64       0.042700
      6 C11        -11.3930   -12.7820   -17.9590 c          1 I64       0.583100
      7 C12        -13.9260   -12.6650   -16.1170 c3         1 I64       0.114000
      8 C13        -15.0430   -13.2890   -16.9780 c3         1 I64      -0.187400
      9 C14        -15.7020   -14.4430   -16.2350 c          1 I64       0.608100
     10 C15        -13.6640   -10.2350   -16.7160 c          1 I64       0.624100
     11 C16        -12.7930    -9.0940   -17.2780 c3         1 I64      -0.151400
     12 C17        -11.9090    -8.4560   -16.1830 c3         1 I64      -0.083100
     13 C18        -10.3600   -17.7830   -18.7080 c3         1 I64      -0.067700
     14 C2          -5.8840   -21.2980   -21.0120 ca         1 I64      -0.083500
     15 C24         -9.0110   -12.0710   -18.5830 c3         1 I64      -0.081400
     16 C25         -7.4660   -12.1560   -18.3960 c3         1 I64      -0.058700
     17 C26         -6.7920   -13.3100   -19.1740 c3         1 I64      -0.094100
     18 C3          -5.8020   -21.0000   -19.6360 ca         1 I64      -0.128300
     19 C30         -7.0390   -12.1420   -16.9110 c3         1 I64      -0.094100
     20 C35        -10.2410   -19.0700   -19.5650 c3         1 I64      -0.095100
     21 C4          -6.3770   -21.8850   -18.7020 ca         1 I64      -0.083500
     22 C5          -7.0270   -23.0530   -19.1380 ca         1 I64      -0.115500
     23 C6          -5.1020   -19.7290   -19.1580 c3         1 I64       0.230900
     24 C60        -11.6540   -17.0160   -19.0790 c3         1 I64      -0.095100
     25 C7          -7.0020   -18.2570   -19.2120 c          1 I64       0.642100
     26 C8          -9.0790   -16.8870   -18.7790 c3         1 I64       0.061700
     27 C9          -9.1910   -15.6110   -17.8940 c          1 I64       0.582100
     28 N1          -9.6910   -14.4930   -18.5330 ns         1 I64      -0.475900
     29 N2         -11.7650   -11.7850   -17.0620 ns         1 I64      -0.370500
     30 N3         -13.1880   -11.5770   -16.8080 n          1 I64      -0.284400
     31 N4         -15.2980   -15.6830   -16.5810 nt         1 I64      -0.610000
     32 O1          -7.0640   -18.2220   -20.4310 o          1 I64      -0.545000
     33 O2          -8.8460   -15.5830   -16.7180 o          1 I64      -0.618100
     34 O3         -12.1830   -13.3020   -18.7400 o          1 I64      -0.579100
     35 O4         -16.5500   -14.2870   -15.3740 o          1 I64      -0.612100
     36 O5         -14.7510    -9.9810   -16.2110 o          1 I64      -0.576100
     37 H1          -7.6770   -17.7370   -17.3760 hn         1 I64       0.337500
     38 H3          -6.5960   -22.6900   -22.5090 ha         1 I64       0.113500
     39 H4          -9.6240   -13.2250   -16.8410 h1         1 I64       0.077700
     40 H5         -13.2130   -13.4530   -15.8370 h1         1 I64       0.074700
     41 H6         -14.3560   -12.2800   -15.1820 h1         1 I64       0.074700
     42 H7         -15.7950   -12.5200   -17.1890 hc         1 I64       0.075200
     43 H8         -14.6010   -13.6540   -17.9100 hc         1 I64       0.075200
     44 H9         -12.1270    -9.4700   -18.0620 hc         1 I64       0.068200
     45 H10        -13.4480    -8.3170   -17.6890 hc         1 I64       0.068200
     46 H11        -11.3050    -7.6430   -16.6040 hc         1 I64       0.037700
     47 H12        -12.5290    -8.0400   -15.3790 hc         1 I64       0.037700
     48 H13        -11.2290    -9.1960   -15.7450 hc         1 I64       0.037700
     49 H14        -10.4730   -18.1070   -17.6650 hc         1 I64       0.058700
     50 H15         -5.4490   -20.6220   -21.7450 ha         1 I64       0.116000
     51 H16         -9.3290   -11.0940   -18.1980 hc         1 I64       0.055200
     52 H17         -9.2400   -12.0490   -19.6570 hc         1 I64       0.055200
     53 H18         -7.0690   -11.2320   -18.8360 hc         1 I64       0.046700
     54 H19         -5.7070   -13.1580   -19.2150 hc         1 I64       0.038700
     55 H20         -6.9680   -14.2780   -18.6950 hc         1 I64       0.038700
     56 H21         -7.1630   -13.3580   -20.2050 hc         1 I64       0.038700
     57 H22         -7.4980   -11.2980   -16.3810 hc         1 I64       0.038700
     58 H23         -7.3330   -13.0690   -16.4050 hc         1 I64       0.038700
     59 H24         -5.9500   -12.0420   -16.8250 hc         1 I64       0.038700
     60 H25         -9.4270   -19.7130   -19.2110 hc         1 I64       0.043200
     61 H26        -11.1650   -19.6590   -19.5130 hc         1 I64       0.043200
     62 H27        -10.0530   -18.8230   -20.6170 hc         1 I64       0.043200
     63 H28         -6.3220   -21.6650   -17.6380 ha         1 I64       0.116000
     64 H29         -7.4690   -23.7310   -18.4120 ha         1 I64       0.113500
     65 H30         -4.2920   -20.0130   -18.4730 h1         1 I64       0.068200
     66 H31         -4.6440   -19.1950   -20.0020 h1         1 I64       0.068200
     67 H32        -11.8560   -16.2080   -18.3670 hc         1 I64       0.043200
     68 H33        -11.5810   -16.5860   -20.0850 hc         1 I64       0.043200
     69 H34        -12.5220   -17.6870   -19.0590 hc         1 I64       0.043200
     70 H35         -8.9380   -16.5510   -19.8150 h1         1 I64       0.080700
     71 H36         -9.9840   -14.6100   -19.4970 hn         1 I64       0.335500
     72 H37        -11.0940   -11.4760   -16.3630 hn         1 I64       0.337500
     73 H38        -15.7080   -16.4820   -16.1210 hn         1 I64       0.313000
     74 H39        -14.6000   -15.8050   -17.3000 hn         1 I64       0.313000
     75 H2          -7.6090   -24.2480   -20.8470 ha         1 I64       0.113000
@<TRIPOS>BOND
     1     1    25 1   
     2     1    26 1   
     3     1    37 1   
     4     2     4 ar  
     5     2    22 ar  
     6     2    75 1   
     7     3    23 1   
     8     3    25 1   
     9     4    14 ar  
    10     4    38 1   
    11     5     6 1   
    12     5    15 1   
    13     5    28 1   
    14     5    39 1   
    15     6    29 1   
    16     6    34 2   
    17     7     8 1   
    18     7    30 1   
    19     7    40 1   
    20     7    41 1   
    21     8     9 1   
    22     8    42 1   
    23     8    43 1   
    24     9    31 1   
    25     9    35 2   
    26    10    11 1   
    27    10    30 1   
    28    10    36 2   
    29    11    12 1   
    30    11    44 1   
    31    11    45 1   
    32    12    46 1   
    33    12    47 1   
    34    12    48 1   
    35    13    20 1   
    36    13    24 1   
    37    13    26 1   
    38    13    49 1   
    39    14    18 ar  
    40    14    50 1   
    41    15    16 1   
    42    15    51 1   
    43    15    52 1   
    44    16    17 1   
    45    16    19 1   
    46    16    53 1   
    47    17    54 1   
    48    17    55 1   
    49    17    56 1   
    50    18    21 ar  
    51    18    23 1   
    52    19    57 1   
    53    19    58 1   
    54    19    59 1   
    55    20    60 1   
    56    20    61 1   
    57    20    62 1   
    58    21    22 ar  
    59    21    63 1   
    60    22    64 1   
    61    23    65 1   
    62    23    66 1   
    63    24    67 1   
    64    24    68 1   
    65    24    69 1   
    66    25    32 2   
    67    26    27 1   
    68    26    70 1   
    69    27    28 1   
    70    27    33 2   
    71    28    71 1   
    72    29    30 1   
    73    29    72 1   
    74    31    73 1   
    75    31    74 1   
@<TRIPOS>SUBSTRUCTURE
     1 I64         1 TEMP              0 ****  ****    0 ROOT
