@<TRIPOS>MOLECULE
I64
   75    75     1     0     0
SMALL
abcg2


@<TRIPOS>ATOM
      1 N           -9.4680   -18.1230   -18.0630 ns         1 I64      -0.492900
      2 C           -5.4700   -21.6230   -21.1440 ca         1 I64      -0.099000
      3 O           -7.6040   -19.0960   -17.3800 os         1 I64      -0.453100
      4 C1          -4.7500   -20.4660   -20.8820 ca         1 I64      -0.115500
      5 C10         -9.7650   -13.4700   -18.1910 c3         1 I64       0.042700
      6 C11        -11.1920   -12.9710   -17.9760 c          1 I64       0.583100
      7 C12        -13.3090   -12.5530   -15.5060 c3         1 I64       0.114000
      8 C13        -13.8650   -13.8420   -16.0960 c3         1 I64      -0.187400
      9 C14        -14.6290   -14.6420   -15.0610 c          1 I64       0.608100
     10 C15        -13.0640   -10.6120   -17.0250 c          1 I64       0.624100
     11 C16        -12.1380    -9.8050   -17.9080 c3         1 I64      -0.151400
     12 C17        -11.0710    -9.0630   -17.1040 c3         1 I64      -0.083100
     13 C18        -11.7100   -17.7090   -18.9510 c3         1 I64      -0.067700
     14 C2          -5.0000   -19.7380   -19.7270 ca         1 I64      -0.083500
     15 C24         -9.0250   -12.4720   -19.0860 c3         1 I64      -0.081400
     16 C25         -7.4950   -12.5870   -19.1270 c3         1 I64      -0.058700
     17 C26         -6.9780   -13.8280   -19.8490 c3         1 I64      -0.094100
     18 C3          -5.9600   -20.1630   -18.8150 ca         1 I64      -0.128300
     19 C30         -6.8690   -12.4630   -17.7420 c3         1 I64      -0.094100
     20 C35        -11.7220   -19.0490   -19.6800 c3         1 I64      -0.095100
     21 C4          -6.6750   -21.3280   -19.0810 ca         1 I64      -0.083500
     22 C5          -6.4350   -22.0520   -20.2400 ca         1 I64      -0.115500
     23 C6          -6.2170   -19.3860   -17.5530 c3         1 I64       0.230900
     24 C60        -12.5800   -16.6980   -19.6890 c3         1 I64      -0.095100
     25 C7          -8.1300   -18.1750   -18.1970 c          1 I64       0.642100
     26 C8         -10.2770   -17.1820   -18.8000 c3         1 I64       0.061700
     27 C9         -10.2670   -15.8380   -18.0720 c          1 I64       0.582100
     28 N1          -9.8020   -14.7900   -18.7670 ns         1 I64      -0.475900
     29 N2         -11.3480   -12.2420   -16.8440 ns         1 I64      -0.370500
     30 N3         -12.5660   -11.7560   -16.4670 n          1 I64      -0.284400
     31 N4         -14.6160   -15.9700   -15.2520 nt         1 I64      -0.610000
     32 O1          -7.4780   -17.4870   -18.9540 o          1 I64      -0.545000
     33 O2         -10.6500   -15.7420   -16.9150 o          1 I64      -0.618100
     34 O3         -12.0830   -13.1520   -18.7780 o          1 I64      -0.579100
     35 O4         -15.2230   -14.1080   -14.1350 o          1 I64      -0.612100
     36 O5         -14.1970   -10.2420   -16.7720 o          1 I64      -0.576100
     37 H1          -9.9100   -18.6830   -17.3500 hn         1 I64       0.337500
     38 H3          -4.0000   -20.1230   -21.5830 ha         1 I64       0.113500
     39 H4          -9.2610   -13.5250   -17.2220 h1         1 I64       0.077700
     40 H5         -12.6360   -12.7790   -14.6750 h1         1 I64       0.074700
     41 H6         -14.1100   -11.9360   -15.1120 h1         1 I64       0.074700
     42 H7         -14.5510   -13.6100   -16.9160 hc         1 I64       0.075200
     43 H8         -13.0660   -14.4530   -16.5190 hc         1 I64       0.075200
     44 H9         -11.6690   -10.4210   -18.6750 hc         1 I64       0.068200
     45 H10        -12.7660    -9.0830   -18.4300 hc         1 I64       0.068200
     46 H11        -10.4920    -8.4200   -17.7660 hc         1 I64       0.037700
     47 H12        -11.5230    -8.4310   -16.3400 hc         1 I64       0.037700
     48 H13        -10.3750    -9.7420   -16.6130 hc         1 I64       0.037700
     49 H14        -12.1230   -17.8520   -17.9460 hc         1 I64       0.058700
     50 H15         -4.4460   -18.8270   -19.5340 ha         1 I64       0.116000
     51 H16         -9.2650   -11.4690   -18.7230 hc         1 I64       0.055200
     52 H17         -9.4300   -12.5330   -20.1010 hc         1 I64       0.055200
     53 H18         -7.1700   -11.7190   -19.7100 hc         1 I64       0.046700
     54 H19         -5.9000   -13.7530   -20.0010 hc         1 I64       0.038700
     55 H20         -7.1610   -14.7410   -19.2840 hc         1 I64       0.038700
     56 H21         -7.4390   -13.9420   -20.8330 hc         1 I64       0.038700
     57 H22         -7.2410   -11.5850   -17.2100 hc         1 I64       0.038700
     58 H23         -7.0700   -13.3400   -17.1230 hc         1 I64       0.038700
     59 H24         -5.7850   -12.3690   -17.8190 hc         1 I64       0.038700
     60 H25        -11.1490   -19.8160   -19.1590 hc         1 I64       0.043200
     61 H26        -12.7450   -19.4130   -19.7790 hc         1 I64       0.043200
     62 H27        -11.3070   -18.9470   -20.6860 hc         1 I64       0.043200
     63 H28         -7.4260   -21.6760   -18.3820 ha         1 I64       0.116000
     64 H29         -7.0000   -22.9540   -20.4370 ha         1 I64       0.113500
     65 H30         -5.9540   -19.9780   -16.6770 h1         1 I64       0.068200
     66 H31         -5.6190   -18.4730   -17.5300 h1         1 I64       0.068200
     67 H32        -12.6810   -15.7560   -19.1520 hc         1 I64       0.043200
     68 H33        -12.1710   -16.4790   -20.6780 hc         1 I64       0.043200
     69 H34        -13.5840   -17.1010   -19.8290 hc         1 I64       0.043200
     70 H35         -9.8510   -17.0730   -19.8020 h1         1 I64       0.080700
     71 H36         -9.5570   -14.9060   -19.7370 hn         1 I64       0.335500
     72 H37        -10.6000   -12.1600   -16.1690 hn         1 I64       0.337500
     73 H38        -15.1410   -16.5790   -14.6450 hn         1 I64       0.313000
     74 H39        -14.1140   -16.3930   -16.0130 hn         1 I64       0.313000
     75 H2          -5.2820   -22.1890   -22.0470 ha         1 I64       0.113000
@<TRIPOS>BOND
     1     1    25 1   
     2     1    26 1   
     3     1    37 1   
     4     2     4 ar  
     5     2    22 ar  
     6     2    75 1   
     7     3    23 1   
     8     3    25 1   
     9     4    14 ar  
    10     4    38 1   
    11     5     6 1   
    12     5    15 1   
    13     5    28 1   
    14     5    39 1   
    15     6    29 1   
    16     6    34 2   
    17     7     8 1   
    18     7    30 1   
    19     7    40 1   
    20     7    41 1   
    21     8     9 1   
    22     8    42 1   
    23     8    43 1   
    24     9    31 1   
    25     9    35 2   
    26    10    11 1   
    27    10    30 1   
    28    10    36 2   
    29    11    12 1   
    30    11    44 1   
    31    11    45 1   
    32    12    46 1   
    33    12    47 1   
    34    12    48 1   
    35    13    20 1   
    36    13    24 1   
    37    13    26 1   
    38    13    49 1   
    39    14    18 ar  
    40    14    50 1   
    41    15    16 1   
    42    15    51 1   
    43    15    52 1   
    44    16    17 1   
    45    16    19 1   
    46    16    53 1   
    47    17    54 1   
    48    17    55 1   
    49    17    56 1   
    50    18    21 ar  
    51    18    23 1   
    52    19    57 1   
    53    19    58 1   
    54    19    59 1   
    55    20    60 1   
    56    20    61 1   
    57    20    62 1   
    58    21    22 ar  
    59    21    63 1   
    60    22    64 1   
    61    23    65 1   
    62    23    66 1   
    63    24    67 1   
    64    24    68 1   
    65    24    69 1   
    66    25    32 2   
    67    26    27 1   
    68    26    70 1   
    69    27    28 1   
    70    27    33 2   
    71    28    71 1   
    72    29    30 1   
    73    29    72 1   
    74    31    73 1   
    75    31    74 1   
@<TRIPOS>SUBSTRUCTURE
     1 I64         1 TEMP              0 ****  ****    0 ROOT
