@<TRIPOS>MOLECULE
I65
   92    93     1     0     0
SMALL
bcc


@<TRIPOS>ATOM
      1 N           -8.6280   -18.2310   -17.4660 ns         1 I65      -0.553900
      2 C           -7.2260   -23.7990   -20.0340 ca         1 I65      -0.118000
      3 O           -6.9940   -19.6870   -17.1960 os         1 I65      -0.436900
      4 C1          -6.5570   -22.7470   -20.6430 ca         1 I65      -0.137500
      5 C10         -9.7740   -13.7640   -17.1860 c3         1 I65       0.042700
      6 C11        -11.2860   -13.5760   -17.0960 c          1 I65       0.652100
      7 C12        -13.7190   -14.0110   -14.9560 c3         1 I65       0.117000
      8 C13        -14.1210   -15.1450   -15.8900 c3         1 I65      -0.187400
      9 C14        -14.8570   -16.2480   -15.1590 c          1 I65       0.678100
     10 C15        -13.7080   -11.8240   -16.1050 c          1 I65       0.687100
     11 C16        -12.8780   -10.7370   -16.7520 c3         1 I65      -0.149400
     12 C17        -13.6870    -9.4840   -17.0440 c3         1 I65      -0.079100
     13 C18        -10.8530   -18.1660   -18.5400 c3         1 I65       0.141100
     14 C2          -6.1300   -21.6620   -19.8870 ca         1 I65      -0.098000
     15 C20        -11.0350   -20.5820   -18.9150 c3         1 I65       0.170800
     16 C21        -10.6100   -21.0230   -17.5140 c3         1 I65      -0.107767
     17 C22        -10.4520   -21.5420   -19.9460 c3         1 I65      -0.107767
     18 C23        -12.5590   -20.5740   -19.0150 c3         1 I65      -0.107767
     19 C24         -9.1680   -12.5730   -17.9270 c3         1 I65      -0.086400
     20 C25         -7.6410   -12.5700   -18.0150 c6         1 I65      -0.061700
     21 C26         -6.9720   -12.5300   -16.6410 c6         1 I65      -0.072400
     22 C27         -5.4520   -12.4540   -16.7530 c6         1 I65      -0.073400
     23 C28         -5.0110   -11.2670   -17.6020 c6         1 I65      -0.075400
     24 C29         -5.6660   -11.3090   -18.9780 c6         1 I65      -0.073400
     25 C3          -6.3560   -21.6230   -18.5160 ca         1 I65      -0.131300
     26 C30         -7.1840   -11.3800   -18.8610 c6         1 I65      -0.072400
     27 C4          -7.0260   -22.6860   -17.9120 ca         1 I65      -0.098000
     28 C5          -7.4610   -23.7670   -18.6640 ca         1 I65      -0.137500
     29 C6          -5.8940   -20.4600   -17.6850 c3         1 I65       0.208700
     30 C60        -11.7910   -17.2930   -19.3610 c3         1 I65      -0.120100
     31 C7          -7.5760   -18.8380   -18.0530 c          1 I65       0.763100
     32 C8          -9.5530   -17.4100   -18.2030 c3         1 I65       0.042700
     33 C9          -9.8590   -16.1770   -17.3630 c          1 I65       0.659100
     34 N1          -9.4900   -14.9970   -17.8770 ns         1 I65      -0.547900
     35 N2         -11.7140   -13.0920   -15.9060 ns         1 I65      -0.434500
     36 N3         -13.0410   -12.9200   -15.6370 n          1 I65      -0.352400
     37 N4         -15.6150   -17.0330   -15.9410 nt         1 I65      -0.679000
     38 O1          -7.1790   -18.6310   -19.1800 o          1 I65      -0.583000
     39 O2         -10.4030   -16.2770   -16.2710 o          1 I65      -0.613100
     40 O3         -12.0230   -13.7860   -18.0370 o          1 I65      -0.581100
     41 O4         -14.7490   -16.4160   -13.9530 o          1 I65      -0.613100
     42 O5         -14.9160   -11.7400   -15.9790 o          1 I65      -0.579100
     43 O6         -10.4780   -19.3120   -19.2640 os         1 I65      -0.416600
     44 H1          -8.9100   -18.5440   -16.5480 hn         1 I65       0.335500
     45 H3          -6.3700   -22.7670   -21.7090 ha         1 I65       0.132000
     46 H4          -9.3540   -13.8190   -16.1770 h1         1 I65       0.075700
     47 H5         -14.5920   -13.5990   -14.4540 h1         1 I65       0.075700
     48 H6         -13.0490   -14.3760   -14.1780 h1         1 I65       0.075700
     49 H7         -14.7300   -14.7620   -16.7110 hc         1 I65       0.074700
     50 H8         -13.2340   -15.5930   -16.3460 hc         1 I65       0.074700
     51 H9         -12.4500   -11.1210   -17.6820 hc         1 I65       0.061200
     52 H10        -12.0260   -10.4980   -16.1110 hc         1 I65       0.061200
     53 H11        -13.0440    -8.7320   -17.5000 hc         1 I65       0.042367
     54 H12        -14.5040    -9.6820   -17.7350 hc         1 I65       0.042367
     55 H13        -14.1090    -9.0530   -16.1370 hc         1 I65       0.042367
     56 H14        -11.3430   -18.4290   -17.5950 h1         1 I65       0.054700
     57 H15         -5.6130   -20.8410   -20.3680 ha         1 I65       0.137500
     58 H16        -11.0140   -20.3780   -16.7320 hc         1 I65       0.042922
     59 H17        -10.9810   -22.0300   -17.3190 hc         1 I65       0.042922
     60 H18         -9.5250   -21.0450   -17.4160 hc         1 I65       0.042922
     61 H19        -10.8210   -22.5530   -19.7750 hc         1 I65       0.042922
     62 H20        -10.7330   -21.2500   -20.9590 hc         1 I65       0.042922
     63 H21         -9.3620   -21.5710   -19.8850 hc         1 I65       0.042922
     64 H22        -13.0170   -19.9030   -18.2860 hc         1 I65       0.042922
     65 H23        -12.8900   -20.2750   -20.0110 hc         1 I65       0.042922
     66 H24        -12.9490   -21.5740   -18.8200 hc         1 I65       0.042922
     67 H25         -9.4920   -11.6580   -17.4190 hc         1 I65       0.058700
     68 H26         -9.5920   -12.5340   -18.9350 hc         1 I65       0.058700
     69 H27         -7.3090   -13.4840   -18.5250 hc         1 I65       0.051700
     70 H28         -7.3450   -11.6580   -16.0910 hc         1 I65       0.038950
     71 H29         -7.2480   -13.4090   -16.0530 hc         1 I65       0.038950
     72 H30         -5.0790   -13.3790   -17.2060 hc         1 I65       0.042200
     73 H31         -5.0090   -12.3950   -15.7560 hc         1 I65       0.042200
     74 H32         -3.9230   -11.2530   -17.6980 hc         1 I65       0.040200
     75 H33         -5.2920   -10.3360   -17.0980 hc         1 I65       0.040200
     76 H34         -5.3030   -12.1850   -19.5260 hc         1 I65       0.042200
     77 H35         -5.3770   -10.4340   -19.5650 hc         1 I65       0.042200
     78 H36         -7.5550   -10.4560   -18.4000 hc         1 I65       0.038950
     79 H37         -7.6380   -11.4370   -19.8540 hc         1 I65       0.038950
     80 H38         -7.2040   -22.6710   -16.8430 ha         1 I65       0.137500
     81 H39         -7.9780   -24.5860   -18.1820 ha         1 I65       0.132000
     82 H40         -5.3900   -20.8100   -16.7840 h1         1 I65       0.066200
     83 H41         -5.1930   -19.8330   -18.2380 h1         1 I65       0.066200
     84 H42        -12.0840   -16.3920   -18.8210 hc         1 I65       0.048367
     85 H43        -11.3170   -16.9850   -20.2950 hc         1 I65       0.048367
     86 H44        -12.7040   -17.8330   -19.6070 hc         1 I65       0.048367
     87 H45         -9.0670   -17.1200   -19.1370 h1         1 I65       0.096700
     88 H46         -9.1050   -14.9590   -18.8090 hn         1 I65       0.335500
     89 H47        -11.0740   -12.9760   -15.1320 hn         1 I65       0.340500
     90 H48        -16.0970   -17.8270   -15.5510 hn         1 I65       0.312500
     91 H49        -15.6890   -16.8850   -16.9320 hn         1 I65       0.312500
     92 H2          -7.5610   -24.6440   -20.6220 ha         1 I65       0.130000
@<TRIPOS>BOND
     1     1    31 1   
     2     1    32 1   
     3     1    44 1   
     4     2     4 ar  
     5     2    28 ar  
     6     2    92 1   
     7     3    29 1   
     8     3    31 1   
     9     4    14 ar  
    10     4    45 1   
    11     5     6 1   
    12     5    19 1   
    13     5    34 1   
    14     5    46 1   
    15     6    35 1   
    16     6    40 2   
    17     7     8 1   
    18     7    36 1   
    19     7    47 1   
    20     7    48 1   
    21     8     9 1   
    22     8    49 1   
    23     8    50 1   
    24     9    37 1   
    25     9    41 2   
    26    10    11 1   
    27    10    36 1   
    28    10    42 2   
    29    11    12 1   
    30    11    51 1   
    31    11    52 1   
    32    12    53 1   
    33    12    54 1   
    34    12    55 1   
    35    13    30 1   
    36    13    32 1   
    37    13    43 1   
    38    13    56 1   
    39    14    25 ar  
    40    14    57 1   
    41    15    16 1   
    42    15    17 1   
    43    15    18 1   
    44    15    43 1   
    45    16    58 1   
    46    16    59 1   
    47    16    60 1   
    48    17    61 1   
    49    17    62 1   
    50    17    63 1   
    51    18    64 1   
    52    18    65 1   
    53    18    66 1   
    54    19    20 1   
    55    19    67 1   
    56    19    68 1   
    57    20    21 1   
    58    20    26 1   
    59    20    69 1   
    60    21    22 1   
    61    21    70 1   
    62    21    71 1   
    63    22    23 1   
    64    22    72 1   
    65    22    73 1   
    66    23    24 1   
    67    23    74 1   
    68    23    75 1   
    69    24    26 1   
    70    24    76 1   
    71    24    77 1   
    72    25    27 ar  
    73    25    29 1   
    74    26    78 1   
    75    26    79 1   
    76    27    28 ar  
    77    27    80 1   
    78    28    81 1   
    79    29    82 1   
    80    29    83 1   
    81    30    84 1   
    82    30    85 1   
    83    30    86 1   
    84    31    38 2   
    85    32    33 1   
    86    32    87 1   
    87    33    34 1   
    88    33    39 2   
    89    34    88 1   
    90    35    36 1   
    91    35    89 1   
    92    37    90 1   
    93    37    91 1   
@<TRIPOS>SUBSTRUCTURE
     1 I65         1 TEMP              0 ****  ****    0 ROOT
