@<TRIPOS>MOLECULE
I65
   92    93     1     0     0
SMALL
No Charge or Current Charge


@<TRIPOS>ATOM
      1 N           -7.9330   -18.1940   -18.0730 ns         1 I65      -0.486900
      2 C           -6.9860   -23.8960   -20.2800 ca         1 I65      -0.100000
      3 O           -6.0660   -19.3030   -18.5070 os         1 I65      -0.460100
      4 C1          -6.8080   -22.9410   -21.2960 ca         1 I65      -0.119500
      5 C10        -10.2900   -13.9500   -17.1700 c3         1 I65       0.042700
      6 C11        -11.7830   -13.5330   -17.3050 c          1 I65       0.585100
      7 C12        -14.4050   -13.3530   -15.5810 c3         1 I65       0.117000
      8 C13        -15.4520   -14.0140   -16.5010 c3         1 I65      -0.187400
      9 C14        -16.2770   -15.1120   -15.8360 c          1 I65       0.611100
     10 C15        -14.0800   -10.9470   -16.2430 c          1 I65       0.620100
     11 C16        -13.1290    -9.8470   -16.7660 c3         1 I65      -0.149400
     12 C17        -13.7430    -8.4340   -16.9080 c3         1 I65      -0.079100
     13 C18        -10.4270   -18.5430   -17.9990 c3         1 I65       0.164300
     14 C2          -6.2230   -21.6980   -21.0000 ca         1 I65      -0.080000
     15 C20        -10.3780   -21.0220   -18.4360 c3         1 I65       0.194000
     16 C21         -9.2650   -21.3000   -17.3930 c3         1 I65      -0.107767
     17 C22        -10.1540   -21.8940   -19.6900 c3         1 I65      -0.107767
     18 C23        -11.7890   -21.2750   -17.8470 c3         1 I65      -0.107767
     19 C24         -9.3460   -12.8550   -17.7440 c3         1 I65      -0.086400
     20 C25         -7.8140   -13.0780   -17.5380 c6         1 I65      -0.061700
     21 C26         -7.4030   -13.0240   -16.0370 c6         1 I65      -0.072400
     22 C27         -5.8800   -13.2390   -15.8570 c6         1 I65      -0.073400
     23 C28         -5.0660   -12.2110   -16.6790 c6         1 I65      -0.075400
     24 C29         -5.4670   -12.2520   -18.1730 c6         1 I65      -0.073400
     25 C3          -5.8090   -21.4010   -19.6860 ca         1 I65      -0.131300
     26 C30         -6.9910   -12.0380   -18.3500 c6         1 I65      -0.072400
     27 C4          -5.9830   -22.3660   -18.6730 ca         1 I65      -0.080000
     28 C5          -6.5730   -23.6070   -18.9680 ca         1 I65      -0.119500
     29 C6          -5.1750   -20.0510   -19.3550 c3         1 I65       0.231900
     30 C60        -11.8270   -17.9300   -18.2520 c3         1 I65      -0.120100
     31 C7          -7.1760   -18.7470   -19.0670 c          1 I65       0.647100
     32 C8          -9.2560   -17.5500   -18.2650 c3         1 I65       0.042700
     33 C9          -9.3530   -16.3090   -17.3420 c          1 I65       0.592100
     34 N1         -10.0680   -15.2450   -17.8540 ns         1 I65      -0.480900
     35 N2         -12.1830   -12.5230   -16.4350 ns         1 I65      -0.367500
     36 N3         -13.6150   -12.2930   -16.2570 n          1 I65      -0.285400
     37 N4         -17.1900   -15.7150   -16.6240 nt         1 I65      -0.612000
     38 O1          -7.4470   -18.7200   -20.2570 o          1 I65      -0.534000
     39 O2          -8.8280   -16.2640   -16.2370 o          1 I65      -0.613100
     40 O3         -12.5390   -14.0430   -18.1250 o          1 I65      -0.581100
     41 O4         -16.1480   -15.4500   -14.6720 o          1 I65      -0.613100
     42 O5         -15.2060   -10.6710   -15.8440 o          1 I65      -0.579100
     43 O6         -10.2690   -19.6530   -18.9170 os         1 I65      -0.463000
     44 H1          -7.5550   -18.2670   -17.1370 hn         1 I65       0.335500
     45 H3          -7.1280   -23.1630   -22.3110 ha         1 I65       0.114000
     46 H4         -10.1000   -14.0710   -16.0960 h1         1 I65       0.075700
     47 H5         -14.9070   -12.9280   -14.7020 h1         1 I65       0.075700
     48 H6         -13.7180   -14.1270   -15.2130 h1         1 I65       0.075700
     49 H7         -16.1480   -13.2800   -16.9220 hc         1 I65       0.074700
     50 H8         -15.0100   -14.4320   -17.4110 hc         1 I65       0.074700
     51 H9         -12.6930   -10.1930   -17.7100 hc         1 I65       0.061200
     52 H10        -12.2470    -9.8290   -16.1160 hc         1 I65       0.061200
     53 H11        -12.9940    -7.7290   -17.2890 hc         1 I65       0.042367
     54 H12        -14.5880    -8.4470   -17.6060 hc         1 I65       0.042367
     55 H13        -14.0970    -8.0640   -15.9380 hc         1 I65       0.042367
     56 H14        -10.3750   -18.8670   -16.9520 h1         1 I65       0.054700
     57 H15         -6.0970   -20.9630   -21.7920 ha         1 I65       0.119500
     58 H16         -9.4360   -20.7630   -16.4540 hc         1 I65       0.042922
     59 H17         -9.2250   -22.3690   -17.1540 hc         1 I65       0.042922
     60 H18         -8.2840   -21.0120   -17.7830 hc         1 I65       0.042922
     61 H19        -10.1830   -22.9600   -19.4370 hc         1 I65       0.042922
     62 H20        -10.9280   -21.7010   -20.4430 hc         1 I65       0.042922
     63 H21         -9.1790   -21.6780   -20.1410 hc         1 I65       0.042922
     64 H22        -11.9540   -20.6920   -16.9340 hc         1 I65       0.042922
     65 H23        -12.5680   -21.0200   -18.5750 hc         1 I65       0.042922
     66 H24        -11.9100   -22.3340   -17.5860 hc         1 I65       0.042922
     67 H25         -9.6210   -11.8870   -17.3070 hc         1 I65       0.058700
     68 H26         -9.5580   -12.7630   -18.8170 hc         1 I65       0.058700
     69 H27         -7.5780   -14.0760   -17.9330 hc         1 I65       0.051700
     70 H28         -7.6890   -12.0540   -15.6060 hc         1 I65       0.038950
     71 H29         -7.9400   -13.7870   -15.4610 hc         1 I65       0.038950
     72 H30         -5.6120   -14.2580   -16.1690 hc         1 I65       0.042200
     73 H31         -5.6150   -13.1590   -14.7940 hc         1 I65       0.042200
     74 H32         -3.9920   -12.4160   -16.5750 hc         1 I65       0.040200
     75 H33         -5.2330   -11.2020   -16.2780 hc         1 I65       0.040200
     76 H34         -5.1760   -13.2180   -18.6080 hc         1 I65       0.042200
     77 H35         -4.9160   -11.4810   -18.7280 hc         1 I65       0.042200
     78 H36         -7.2580   -11.0200   -18.0340 hc         1 I65       0.038950
     79 H37         -7.2460   -12.1080   -19.4170 hc         1 I65       0.038950
     80 H38         -5.6690   -22.1490   -17.6540 ha         1 I65       0.119500
     81 H39         -6.7110   -24.3440   -18.1810 ha         1 I65       0.114000
     82 H40         -4.2260   -20.2310   -18.8330 h1         1 I65       0.066200
     83 H41         -4.9400   -19.4960   -20.2740 h1         1 I65       0.066200
     84 H42        -12.0430   -17.1350   -17.5300 hc         1 I65       0.048367
     85 H43        -11.8900   -17.5070   -19.2620 hc         1 I65       0.048367
     86 H44        -12.6200   -18.6780   -18.1490 hc         1 I65       0.048367
     87 H45         -9.3310   -17.2030   -19.3030 h1         1 I65       0.096700
     88 H46        -10.4980   -15.3750   -18.7640 hn         1 I65       0.335500
     89 H47        -11.5440   -12.2180   -15.7050 hn         1 I65       0.340500
     90 H48        -17.7660   -16.4480   -16.2390 hn         1 I65       0.312500
     91 H49        -17.2940   -15.4320   -17.5870 hn         1 I65       0.312500
     92 H2          -7.4420   -24.8560   -20.5080 ha         1 I65       0.112000
@<TRIPOS>BOND
     1     1    31 1   
     2     1    32 1   
     3     1    44 1   
     4     2     4 ar  
     5     2    28 ar  
     6     2    92 1   
     7     3    29 1   
     8     3    31 1   
     9     4    14 ar  
    10     4    45 1   
    11     5     6 1   
    12     5    19 1   
    13     5    34 1   
    14     5    46 1   
    15     6    35 1   
    16     6    40 2   
    17     7     8 1   
    18     7    36 1   
    19     7    47 1   
    20     7    48 1   
    21     8     9 1   
    22     8    49 1   
    23     8    50 1   
    24     9    37 1   
    25     9    41 2   
    26    10    11 1   
    27    10    36 1   
    28    10    42 2   
    29    11    12 1   
    30    11    51 1   
    31    11    52 1   
    32    12    53 1   
    33    12    54 1   
    34    12    55 1   
    35    13    30 1   
    36    13    32 1   
    37    13    43 1   
    38    13    56 1   
    39    14    25 ar  
    40    14    57 1   
    41    15    16 1   
    42    15    17 1   
    43    15    18 1   
    44    15    43 1   
    45    16    58 1   
    46    16    59 1   
    47    16    60 1   
    48    17    61 1   
    49    17    62 1   
    50    17    63 1   
    51    18    64 1   
    52    18    65 1   
    53    18    66 1   
    54    19    20 1   
    55    19    67 1   
    56    19    68 1   
    57    20    21 1   
    58    20    26 1   
    59    20    69 1   
    60    21    22 1   
    61    21    70 1   
    62    21    71 1   
    63    22    23 1   
    64    22    72 1   
    65    22    73 1   
    66    23    24 1   
    67    23    74 1   
    68    23    75 1   
    69    24    26 1   
    70    24    76 1   
    71    24    77 1   
    72    25    27 ar  
    73    25    29 1   
    74    26    78 1   
    75    26    79 1   
    76    27    28 ar  
    77    27    80 1   
    78    28    81 1   
    79    29    82 1   
    80    29    83 1   
    81    30    84 1   
    82    30    85 1   
    83    30    86 1   
    84    31    38 2   
    85    32    33 1   
    86    32    87 1   
    87    33    34 1   
    88    33    39 2   
    89    34    88 1   
    90    35    36 1   
    91    35    89 1   
    92    37    90 1   
    93    37    91 1   
@<TRIPOS>SUBSTRUCTURE
     1 I65         1 TEMP              0 ****  ****    0 ROOT
