@<TRIPOS>MOLECULE
I66
   50    53     1     0     0
SMALL
No Charge or Current Charge


@<TRIPOS>ATOM
      1 O1          -1.1730    -2.0910    -0.7510 o          1 I66      -0.489000
      2 C2          -0.5650    -1.4220     0.0760 c          1 I66       0.664300
      3 O3          -0.0030    -1.9830     1.1940 os         1 I66      -0.434100
      4 C4          -0.0230    -3.4130     1.3190 c3         1 I66       0.164600
      5 C5           0.6870    -3.7740     2.6340 c3         1 I66      -0.097100
      6 C6          -0.5570     0.0610     0.0720 cc         1 I66      -0.166400
      7 C7           0.4030     1.0080     0.6710 ca         1 I66      -0.022800
      8 C8           1.7260     0.8810     1.1810 ca         1 I66      -0.067300
      9 C9           2.3530     2.0660     1.6670 ca         1 I66       0.121100
     10 O10          3.6040     2.0250     2.2170 oh         1 I66      -0.538100
     11 C11          1.7160     3.3230     1.5720 ca         1 I66      -0.183000
     12 C12          0.4580     3.4380     0.9570 ca         1 I66      -0.059000
     13 C13         -0.1520     2.2640     0.5170 ca         1 I66       0.015100
     14 O14         -1.3060     2.1790    -0.1870 os         1 I66      -0.162200
     15 C15         -1.5520     0.8660    -0.4860 cd         1 I66       0.144900
     16 C16         -2.9380     0.5900    -0.9310 ca         1 I66      -0.048800
     17 C17         -3.5710     1.5070    -1.7990 ca         1 I66      -0.070500
     18 C18         -4.8900     1.2940    -2.2350 ca         1 I66      -0.116000
     19 C19         -5.6040     0.1690    -1.7940 ca         1 I66      -0.092000
     20 C20         -4.9990    -0.7340    -0.9070 ca         1 I66      -0.116000
     21 C21         -3.6780    -0.5230    -0.4730 ca         1 I66      -0.070500
     22 C22          2.5190    -0.4330     1.1290 c3         1 I66       0.225100
     23 N23          2.5330    -1.0620    -0.2150 n3         1 I66      -0.724600
     24 C24          3.1190    -0.2510    -1.2990 c5         1 I66       0.157800
     25 C25          3.0710    -1.2430    -2.4940 c5         1 I66      -0.079900
     26 C26          3.1040    -2.6520    -1.8190 c5         1 I66      -0.079900
     27 C27          3.2730    -2.3320    -0.3120 c5         1 I66       0.157800
     28 H1          -1.0540    -3.7900     1.3460 h1         1 I66       0.045700
     29 H2           0.5010    -3.8870     0.4780 h1         1 I66       0.045700
     30 H3           0.6820    -4.8600     2.7810 hc         1 I66       0.044367
     31 H4           1.7290    -3.4350     2.6170 hc         1 I66       0.044367
     32 H5           0.1800    -3.3080     3.4870 hc         1 I66       0.044367
     33 H6           3.8600     2.9350     2.4790 ho         1 I66       0.464000
     34 H7           2.2130     4.2210     1.9320 ha         1 I66       0.117000
     35 H8          -0.0200     4.4050     0.8190 ha         1 I66       0.133000
     36 H9          -3.0320     2.3830    -2.1530 ha         1 I66       0.121500
     37 H10         -5.3590     2.0030    -2.9130 ha         1 I66       0.116500
     38 H11         -6.6270     0.0060    -2.1280 ha         1 I66       0.114000
     39 H12         -5.5570    -1.5950    -0.5450 ha         1 I66       0.116500
     40 H13         -3.2580    -1.2110     0.2540 ha         1 I66       0.121500
     41 H14          3.5570    -0.2560     1.4350 h1         1 I66       0.051200
     42 H15          2.1120    -1.1190     1.8810 h1         1 I66       0.051200
     43 H17          2.5460     0.6640    -1.5010 h1         1 I66       0.035200
     44 H18          4.1540     0.0370    -1.0650 h1         1 I66       0.035200
     45 H19          2.1520    -1.1120    -3.0760 hc         1 I66       0.049200
     46 H20          3.9120    -1.0870    -3.1780 hc         1 I66       0.049200
     47 H21          2.1660    -3.1900    -1.9980 hc         1 I66       0.049200
     48 H22          3.9170    -3.2830    -2.1960 hc         1 I66       0.049200
     49 H23          4.3320    -2.2010    -0.0470 h1         1 I66       0.035200
     50 H24          2.8520    -3.1190     0.3280 h1         1 I66       0.035200
@<TRIPOS>BOND
     1     1     2 2   
     2     2     3 1   
     3     2     6 1   
     4     3     4 1   
     5     4     5 1   
     6     4    28 1   
     7     4    29 1   
     8     5    30 1   
     9     5    31 1   
    10     5    32 1   
    11     6     7 1   
    12     6    15 2   
    13     7     8 ar  
    14     7    13 ar  
    15     8     9 ar  
    16     8    22 1   
    17     9    10 1   
    18     9    11 ar  
    19    10    33 1   
    20    11    12 ar  
    21    11    34 1   
    22    12    13 ar  
    23    12    35 1   
    24    13    14 1   
    25    14    15 1   
    26    15    16 1   
    27    16    17 ar  
    28    16    21 ar  
    29    17    18 ar  
    30    17    36 1   
    31    18    19 ar  
    32    18    37 1   
    33    19    20 ar  
    34    19    38 1   
    35    20    21 ar  
    36    20    39 1   
    37    21    40 1   
    38    22    23 1   
    39    22    41 1   
    40    22    42 1   
    41    23    24 1   
    42    23    27 1   
    43    24    25 1   
    44    24    43 1   
    45    24    44 1   
    46    25    26 1   
    47    25    45 1   
    48    25    46 1   
    49    26    27 1   
    50    26    47 1   
    51    26    48 1   
    52    27    49 1   
    53    27    50 1   
@<TRIPOS>SUBSTRUCTURE
     1 I66         1 TEMP              0 ****  ****    0 ROOT
