@<TRIPOS>MOLECULE
I66
   50    53     1     0     0
SMALL
bcc


@<TRIPOS>ATOM
      1 O1          -0.5740    -1.8560    -1.0790 o          1 I66      -0.538000
      2 C2          -0.3450    -1.2930    -0.0380 c          1 I66       0.713300
      3 O3          -0.1390    -1.9100     1.1160 os         1 I66      -0.410900
      4 C4          -0.0800    -3.3430     1.1050 c3         1 I66       0.141400
      5 C5           0.3610    -3.7960     2.4760 c3         1 I66      -0.097100
      6 C6          -0.4190     0.1730     0.1430 cc         1 I66      -0.166400
      7 C7           0.5430     1.0890     0.7030 ca         1 I66      -0.022800
      8 C8           1.8660     0.9930     1.1610 ca         1 I66      -0.067300
      9 C9           2.4560     2.1690     1.6190 ca         1 I66       0.121100
     10 O10          3.7190     2.0960     2.0990 oh         1 I66      -0.499100
     11 C11          1.7820     3.4010     1.5850 ca         1 I66      -0.201000
     12 C12          0.5010     3.5060     1.0810 ca         1 I66      -0.077000
     13 C13         -0.0840     2.3330     0.6490 ca         1 I66       0.015100
     14 O14         -1.3200     2.2200     0.1080 os         1 I66      -0.162200
     15 C15         -1.5110     0.9160    -0.1880 cd         1 I66       0.144900
     16 C16         -2.8120     0.5730    -0.7550 ca         1 I66      -0.048800
     17 C17         -3.4150     1.4210    -1.6860 ca         1 I66      -0.088500
     18 C18         -4.6500     1.0980    -2.2260 ca         1 I66      -0.134000
     19 C19         -5.2990    -0.0680    -1.8420 ca         1 I66      -0.110000
     20 C20         -4.7100    -0.9080    -0.9060 ca         1 I66      -0.134000
     21 C21         -3.4760    -0.5890    -0.3620 ca         1 I66      -0.088500
     22 C22          2.6330    -0.2980     1.1010 c3         1 I66       0.225100
     23 N23          2.3910    -1.0000    -0.1370 n3         1 I66      -0.724600
     24 C24          2.7750    -0.2870    -1.3430 c5         1 I66       0.157800
     25 C25          2.7100    -1.3620    -2.4310 c5         1 I66      -0.079900
     26 C26          2.9110    -2.6910    -1.6720 c5         1 I66      -0.079900
     27 C27          3.1050    -2.2610    -0.2200 c5         1 I66       0.157800
     28 H1          -1.0650    -3.7460     0.8580 h1         1 I66       0.045700
     29 H2           0.6180    -3.6820     0.3380 h1         1 I66       0.045700
     30 H3           0.4120    -4.8840     2.4960 hc         1 I66       0.044367
     31 H4           1.3500    -3.4090     2.7240 hc         1 I66       0.044367
     32 H5          -0.3390    -3.4790     3.2500 hc         1 I66       0.044367
     33 H6           4.0490     2.9770     2.3090 ho         1 I66       0.425000
     34 H7           2.2840     4.2920     1.9430 ha         1 I66       0.135000
     35 H8          -0.0070     4.4600     1.0260 ha         1 I66       0.151000
     36 H9          -2.9150     2.3280    -2.0010 ha         1 I66       0.139500
     37 H10         -5.1060     1.7590    -2.9520 ha         1 I66       0.134500
     38 H11         -6.2640    -0.3170    -2.2640 ha         1 I66       0.132000
     39 H12         -5.2180    -1.8090    -0.5880 ha         1 I66       0.134500
     40 H13         -3.0490    -1.2320     0.3960 ha         1 I66       0.139500
     41 H14          3.7060    -0.1040     1.2430 h1         1 I66       0.051200
     42 H15          2.3310    -0.9500     1.9280 h1         1 I66       0.051200
     43 H17          2.1090     0.5530    -1.5400 h1         1 I66       0.035200
     44 H18          3.7990     0.1160    -1.2610 h1         1 I66       0.035200
     45 H19          1.7410    -1.3490    -2.9280 hc         1 I66       0.049200
     46 H20          3.4700    -1.1980    -3.1950 hc         1 I66       0.049200
     47 H21          2.0280    -3.3230    -1.7660 hc         1 I66       0.049200
     48 H22          3.7620    -3.2630    -2.0390 hc         1 I66       0.049200
     49 H23          4.1770    -2.1250     0.0020 h1         1 I66       0.035200
     50 H24          2.7180    -2.9840     0.5010 h1         1 I66       0.035200
@<TRIPOS>BOND
     1     1     2 2   
     2     2     3 1   
     3     2     6 1   
     4     3     4 1   
     5     4     5 1   
     6     4    28 1   
     7     4    29 1   
     8     5    30 1   
     9     5    31 1   
    10     5    32 1   
    11     6     7 1   
    12     6    15 2   
    13     7     8 ar  
    14     7    13 ar  
    15     8     9 ar  
    16     8    22 1   
    17     9    10 1   
    18     9    11 ar  
    19    10    33 1   
    20    11    12 ar  
    21    11    34 1   
    22    12    13 ar  
    23    12    35 1   
    24    13    14 1   
    25    14    15 1   
    26    15    16 1   
    27    16    17 ar  
    28    16    21 ar  
    29    17    18 ar  
    30    17    36 1   
    31    18    19 ar  
    32    18    37 1   
    33    19    20 ar  
    34    19    38 1   
    35    20    21 ar  
    36    20    39 1   
    37    21    40 1   
    38    22    23 1   
    39    22    41 1   
    40    22    42 1   
    41    23    24 1   
    42    23    27 1   
    43    24    25 1   
    44    24    43 1   
    45    24    44 1   
    46    25    26 1   
    47    25    45 1   
    48    25    46 1   
    49    26    27 1   
    50    26    47 1   
    51    26    48 1   
    52    27    49 1   
    53    27    50 1   
@<TRIPOS>SUBSTRUCTURE
     1 I66         1 TEMP              0 ****  ****    0 ROOT
