@<TRIPOS>MOLECULE
I67
   65    67     1     0     0
SMALL
No Charge or Current Charge


@<TRIPOS>ATOM
      1 C01        -22.5520   -26.1330    28.8880 c3         1 I67      -0.084100
      2 C02        -23.1120   -25.3920    27.6580 c3         1 I67      -0.053100
      3 C03        -22.0240   -24.5940    26.9110 ca         1 I67       0.093700
      4 C04        -21.2510   -25.1850    25.8830 ca         1 I67      -0.177000
      5 C05        -21.4570   -26.5440    25.4730 cg         1 I67       0.342000
      6 C07        -20.2700   -24.4090    25.2440 ca         1 I67       0.706900
      7 C09        -18.3760   -25.8970    24.5610 c3         1 I67       0.229800
      8 C10        -16.9440   -25.3300    24.7300 c3         1 I67      -0.090400
      9 C11        -16.6850   -23.9480    24.0870 c3         1 I67       0.163800
     10 C13        -18.0820   -24.4680    22.0640 c3         1 I67       0.148800
     11 C14        -19.3850   -24.2410    22.8940 c3         1 I67       0.201800
     12 C15        -16.6370   -22.4560    22.1510 c3         1 I67       0.144100
     13 C17        -20.7380   -22.5620    26.5280 ca         1 I67       0.566300
     14 C19        -18.8990   -20.4310    25.7940 c3         1 I67       0.092900
     15 C20        -17.5430   -21.0350    26.1820 ca         1 I67      -0.060300
     16 C21        -16.4080   -20.6440    25.4430 ca         1 I67      -0.101500
     17 C22        -15.1410   -21.1790    25.7310 ca         1 I67      -0.098000
     18 C23        -14.9870   -22.1240    26.7620 ca         1 I67      -0.120300
     19 C24        -13.6220   -22.7160    27.0780 c3         1 I67       0.157300
     20 C26        -13.0920   -24.6310    25.4910 c          1 I67       0.599100
     21 C27        -12.5400   -23.6160    24.4220 c3         1 I67       0.071800
     22 C30        -16.1140   -22.5130    27.5090 ca         1 I67      -0.098000
     23 C31        -17.3800   -21.9730    27.2260 ca         1 I67      -0.101500
     24 C32        -21.7370   -23.2470    27.2430 ca         1 I67      -0.148000
     25 C33        -22.4340   -22.5670    28.2970 cg         1 I67       0.341000
     26 N06        -21.6350   -27.6520    25.1540 n1         1 I67      -0.471000
     27 N08        -19.4220   -24.8940    24.2390 nh         1 I67      -0.774300
     28 N12        -16.8320   -23.8490    22.6100 n3         1 I67      -0.708600
     29 N16        -20.0320   -23.1320    25.5440 nb         1 I67      -0.782000
     30 N25        -13.5420   -24.1280    26.6940 ns         1 I67      -0.517900
     31 N28        -12.0070   -24.1760    23.1290 n8         1 I67      -0.977200
     32 N34        -23.0090   -22.0280    29.1570 n1         1 I67      -0.455000
     33 O29        -13.1150   -25.8410    25.3090 o          1 I67      -0.587100
     34 S18        -20.3300   -20.8500    26.9070 ss         1 I67      -0.324300
     35 H1         -23.3490   -26.6900    29.3960 hc         1 I67       0.042367
     36 H2         -21.7720   -26.8450    28.5920 hc         1 I67       0.042367
     37 H3         -22.1190   -25.4250    29.6050 hc         1 I67       0.042367
     38 H4         -23.9330   -24.7410    27.9800 hc         1 I67       0.065200
     39 H5         -23.5970   -26.1200    26.9960 hc         1 I67       0.065200
     40 H6         -18.3610   -26.6620    23.7730 h1         1 I67       0.059200
     41 H7         -18.6360   -26.4360    25.4820 h1         1 I67       0.059200
     42 H8         -16.7470   -25.2290    25.8030 hc         1 I67       0.053200
     43 H9         -16.2180   -26.0570    24.3500 hc         1 I67       0.053200
     44 H10        -17.3540   -23.2250    24.5700 h1         1 I67       0.039700
     45 H11        -15.6660   -23.6460    24.3600 h1         1 I67       0.039700
     46 H12        -18.2640   -24.0920    21.0480 h1         1 I67       0.057700
     47 H13        -17.9330   -25.5480    21.9460 h1         1 I67       0.057700
     48 H14        -19.5290   -23.1570    22.9930 h1         1 I67       0.057200
     49 H15        -20.2280   -24.6200    22.3000 h1         1 I67       0.057200
     50 H16        -15.6720   -22.0640    22.5010 h1         1 I67       0.036367
     51 H17        -16.6440   -22.4000    21.0540 h1         1 I67       0.036367
     52 H18        -17.4310   -21.8010    22.5350 h1         1 I67       0.036367
     53 H19        -18.7960   -19.3380    25.7920 h1         1 I67       0.086200
     54 H20        -19.1490   -20.7320    24.7690 h1         1 I67       0.086200
     55 H21        -16.5100   -19.9230    24.6350 ha         1 I67       0.122000
     56 H22        -14.2810   -20.8600    25.1460 ha         1 I67       0.116500
     57 H23        -13.4470   -22.6460    28.1590 h1         1 I67       0.054700
     58 H24        -12.8300   -22.1370    26.5870 h1         1 I67       0.054700
     59 H25        -11.7310   -23.0480    24.9020 h1         1 I67       0.043700
     60 H26        -13.3480   -22.9100    24.1860 h1         1 I67       0.043700
     61 H27        -16.0100   -23.2390    28.3130 ha         1 I67       0.116500
     62 H28        -18.2240   -22.3010    27.8240 ha         1 I67       0.122000
     63 H30        -13.8750   -24.8180    27.3550 hn         1 I67       0.316500
     64 H31        -11.5700   -23.4240    22.5800 hn         1 I67       0.404000
     65 H32        -11.2290   -24.8180    23.3300 hn         1 I67       0.404000
@<TRIPOS>BOND
     1     1     2 1   
     2     1    35 1   
     3     1    36 1   
     4     1    37 1   
     5     2     3 1   
     6     2    38 1   
     7     2    39 1   
     8     3     4 ar  
     9     3    24 ar  
    10     4     5 1   
    11     4     6 ar  
    12     5    26 3   
    13     6    27 1   
    14     6    29 ar  
    15     7     8 1   
    16     7    27 1   
    17     7    40 1   
    18     7    41 1   
    19     8     9 1   
    20     8    42 1   
    21     8    43 1   
    22     9    28 1   
    23     9    44 1   
    24     9    45 1   
    25    10    11 1   
    26    10    28 1   
    27    10    46 1   
    28    10    47 1   
    29    11    27 1   
    30    11    48 1   
    31    11    49 1   
    32    12    28 1   
    33    12    50 1   
    34    12    51 1   
    35    12    52 1   
    36    13    24 ar  
    37    13    29 ar  
    38    13    34 1   
    39    14    15 1   
    40    14    34 1   
    41    14    53 1   
    42    14    54 1   
    43    15    16 ar  
    44    15    23 ar  
    45    16    17 ar  
    46    16    55 1   
    47    17    18 ar  
    48    17    56 1   
    49    18    19 1   
    50    18    22 ar  
    51    19    30 1   
    52    19    57 1   
    53    19    58 1   
    54    20    21 1   
    55    20    30 1   
    56    20    33 2   
    57    21    31 1   
    58    21    59 1   
    59    21    60 1   
    60    22    23 ar  
    61    22    61 1   
    62    23    62 1   
    63    24    25 1   
    64    25    32 3   
    65    30    63 1   
    66    31    64 1   
    67    31    65 1   
@<TRIPOS>SUBSTRUCTURE
     1 I67         1 TEMP              0 ****  ****    0 ROOT
