@<TRIPOS>MOLECULE
I67
   65    67     1     0     0
SMALL
abcg2


@<TRIPOS>ATOM
      1 C01        -22.2540   -26.0930    28.9450 c3         1 I67      -0.084100
      2 C02        -22.9500   -25.2330    27.8890 c3         1 I67      -0.053100
      3 C03        -21.9550   -24.4380    27.0990 ca         1 I67       0.093700
      4 C04        -21.2960   -24.9900    25.9980 ca         1 I67      -0.177000
      5 C05        -21.7770   -26.2250    25.4930 cg         1 I67       0.342000
      6 C07        -20.2980   -24.2310    25.3130 ca         1 I67       0.706900
      7 C09        -19.1530   -26.1170    24.2090 c3         1 I67       0.229800
      8 C10        -17.6410   -26.3750    24.3070 c3         1 I67      -0.090400
      9 C11        -16.7040   -25.2940    23.7960 c3         1 I67       0.163800
     10 C13        -18.2930   -24.4450    22.1690 c3         1 I67       0.148800
     11 C14        -18.9970   -23.7600    23.3370 c3         1 I67       0.201800
     12 C15        -15.9460   -23.9100    22.0160 c3         1 I67       0.144100
     13 C17        -20.7610   -22.4010    26.6240 ca         1 I67       0.566300
     14 C19        -19.1400   -20.2590    25.9200 c3         1 I67       0.092900
     15 C20        -17.8310   -20.9420    26.2060 ca         1 I67      -0.060300
     16 C21        -16.9420   -21.1420    25.1530 ca         1 I67      -0.101500
     17 C22        -15.7170   -21.7550    25.3600 ca         1 I67      -0.098000
     18 C23        -15.3440   -22.1890    26.6280 ca         1 I67      -0.120300
     19 C24        -14.0210   -22.8770    26.8640 c3         1 I67       0.157300
     20 C26        -12.7680   -23.7660    24.8710 c          1 I67       0.599100
     21 C27        -11.8590   -22.5470    24.8820 c3         1 I67       0.071800
     22 C30        -16.2230   -21.9720    27.6820 ca         1 I67      -0.098000
     23 C31        -17.4480   -21.3510    27.4780 ca         1 I67      -0.101500
     24 C32        -21.6430   -23.1270    27.4530 ca         1 I67      -0.148000
     25 C33        -22.2380   -22.5070    28.5790 cg         1 I67       0.341000
     26 N06        -22.2270   -27.2050    25.0780 n1         1 I67      -0.471000
     27 N08        -19.5200   -24.7130    24.3300 nh         1 I67      -0.774300
     28 N12        -16.9280   -24.8950    22.4210 n3         1 I67      -0.708600
     29 N16        -20.1380   -22.9330    25.6090 nb         1 I67      -0.782000
     30 N25        -13.6950   -23.8490    25.8470 ns         1 I67      -0.517900
     31 N28        -11.0140   -22.5180    23.7090 n8         1 I67      -0.977200
     32 N34        -22.7160   -21.9910    29.4940 n1         1 I67      -0.455000
     33 O29        -12.6420   -24.6520    24.0390 o          1 I67      -0.587100
     34 S18        -20.5130   -20.7110    27.0050 ss         1 I67      -0.324300
     35 H1         -22.9940   -26.6630    29.5050 hc         1 I67       0.042367
     36 H2         -21.5600   -26.7990    28.4880 hc         1 I67       0.042367
     37 H3         -21.6960   -25.4790    29.6510 hc         1 I67       0.042367
     38 H4         -23.6620   -24.5630    28.3710 hc         1 I67       0.065200
     39 H5         -23.5320   -25.8680    27.2210 hc         1 I67       0.065200
     40 H6         -19.5610   -26.5350    23.2890 h1         1 I67       0.059200
     41 H7         -19.6080   -26.6760    25.0190 h1         1 I67       0.059200
     42 H8         -17.3840   -26.5340    25.3560 hc         1 I67       0.053200
     43 H9         -17.4410   -27.3160    23.7910 hc         1 I67       0.053200
     44 H10        -16.7450   -24.4310    24.4820 h1         1 I67       0.039700
     45 H11        -15.6830   -25.6790    23.8750 h1         1 I67       0.039700
     46 H12        -18.2700   -23.7200    21.3540 h1         1 I67       0.057700
     47 H13        -18.9050   -25.2700    21.7960 h1         1 I67       0.057700
     48 H14        -18.3260   -23.0410    23.8090 h1         1 I67       0.057200
     49 H15        -19.8400   -23.1900    22.9420 h1         1 I67       0.057200
     50 H16        -14.9400   -24.3020    22.1730 h1         1 I67       0.036367
     51 H17        -16.0520   -23.6850    20.9540 h1         1 I67       0.036367
     52 H18        -16.0160   -22.9600    22.5700 h1         1 I67       0.036367
     53 H19        -19.0550   -19.1790    26.0700 h1         1 I67       0.086200
     54 H20        -19.4400   -20.4130    24.8840 h1         1 I67       0.086200
     55 H21        -17.2170   -20.8280    24.1520 ha         1 I67       0.122000
     56 H22        -15.0600   -21.9110    24.5130 ha         1 I67       0.116500
     57 H23        -14.0410   -23.3760    27.8350 h1         1 I67       0.054700
     58 H24        -13.2230   -22.1360    26.9310 h1         1 I67       0.054700
     59 H25        -11.3120   -22.5470    25.8370 h1         1 I67       0.043700
     60 H26        -12.4700   -21.6390    24.8910 h1         1 I67       0.043700
     61 H27        -15.9570   -22.3040    28.6790 ha         1 I67       0.116500
     62 H28        -18.1150   -21.2110    28.3190 ha         1 I67       0.122000
     63 H30        -14.2790   -24.6730    25.8160 hn         1 I67       0.316500
     64 H31        -10.4350   -21.6900    23.7500 hn         1 I67       0.404000
     65 H32        -10.3780   -23.3050    23.7260 hn         1 I67       0.404000
@<TRIPOS>BOND
     1     1     2 1   
     2     1    35 1   
     3     1    36 1   
     4     1    37 1   
     5     2     3 1   
     6     2    38 1   
     7     2    39 1   
     8     3     4 ar  
     9     3    24 ar  
    10     4     5 1   
    11     4     6 ar  
    12     5    26 3   
    13     6    27 1   
    14     6    29 ar  
    15     7     8 1   
    16     7    27 1   
    17     7    40 1   
    18     7    41 1   
    19     8     9 1   
    20     8    42 1   
    21     8    43 1   
    22     9    28 1   
    23     9    44 1   
    24     9    45 1   
    25    10    11 1   
    26    10    28 1   
    27    10    46 1   
    28    10    47 1   
    29    11    27 1   
    30    11    48 1   
    31    11    49 1   
    32    12    28 1   
    33    12    50 1   
    34    12    51 1   
    35    12    52 1   
    36    13    24 ar  
    37    13    29 ar  
    38    13    34 1   
    39    14    15 1   
    40    14    34 1   
    41    14    53 1   
    42    14    54 1   
    43    15    16 ar  
    44    15    23 ar  
    45    16    17 ar  
    46    16    55 1   
    47    17    18 ar  
    48    17    56 1   
    49    18    19 1   
    50    18    22 ar  
    51    19    30 1   
    52    19    57 1   
    53    19    58 1   
    54    20    21 1   
    55    20    30 1   
    56    20    33 2   
    57    21    31 1   
    58    21    59 1   
    59    21    60 1   
    60    22    23 ar  
    61    22    61 1   
    62    23    62 1   
    63    24    25 1   
    64    25    32 3   
    65    30    63 1   
    66    31    64 1   
    67    31    65 1   
@<TRIPOS>SUBSTRUCTURE
     1 I67         1 TEMP              0 ****  ****    0 ROOT
