@<TRIPOS>MOLECULE
I68
   82    82     1     0     0
SMALL
No Charge or Current Charge


@<TRIPOS>ATOM
      1 C1          45.8720   -25.5130     4.2190 c3         1 I68       0.155400
      2 C10         40.1760   -26.6750     1.5010 c3         1 I68      -0.088100
      3 C11         41.8350   -24.7390     1.3800 c3         1 I68       0.051700
      4 C12         42.1030   -23.2100     1.2630 c          1 I68       0.576100
      5 C13         44.6420   -19.2990     0.2540 c3         1 I68      -0.086100
      6 C14         42.2250   -21.2930    -0.3990 c3         1 I68       0.035700
      7 C15         40.8930   -20.9380    -1.1150 c          1 I68       0.584100
      8 C17         39.1230   -19.1440    -1.3200 c3         1 I68       0.103700
      9 C19         38.1700   -18.9550    -0.1080 c3         1 I68      -0.070400
     10 C2          45.9280   -26.0450     5.6690 c3         1 I68      -0.105100
     11 C20         37.8920   -20.2410     0.7250 c5         1 I68      -0.155700
     12 C21         37.1440   -21.3720    -0.0360 c5         1 I68      -0.094400
     13 C22         36.5950   -22.2200     1.1440 c5         1 I68       0.099000
     14 C24         36.9880   -20.0110     1.9430 c          1 I68       0.565000
     15 C3          46.4300   -24.0670     4.1880 c3         1 I68      -0.105100
     16 C30         40.3130   -25.1270     1.4660 c3         1 I68      -0.042000
     17 C31         39.6360   -24.5350     2.7350 c3         1 I68      -0.088100
     18 C32         39.5530   -24.6060     0.2160 c3         1 I68      -0.088100
     19 C34         43.4400   -20.9440    -1.3100 c3         1 I68      -0.072400
     20 C35         44.7940   -20.5770    -0.6150 c3         1 I68      -0.047000
     21 C36         45.3140   -21.7400     0.2660 c3         1 I68      -0.086100
     22 C37         45.8450   -20.2940    -1.7230 c3         1 I68      -0.086100
     23 C4          46.7150   -26.4390     3.3060 c3         1 I68      -0.105100
     24 C8          39.3290   -17.8490    -2.1510 c3         1 I68       0.150600
     25 C9          43.9520   -25.1250     2.6000 c          1 I68       0.653100
     26 N10         42.5970   -25.2280     2.5370 ns         1 I68      -0.504900
     27 N13         42.1990   -22.7280    -0.0300 ns         1 I68      -0.481900
     28 N16         40.4190   -19.6670    -0.8630 ns         1 I68      -0.501900
     29 N23         36.2720   -21.1660     2.1020 ns         1 I68      -0.516900
     30 N8          44.4630   -25.5290     3.8070 ns         1 I68      -0.525900
     31 O26         36.7310   -18.9780     2.5400 o          1 I68      -0.558000
     32 O29         44.6020   -24.7020     1.6620 o          1 I68      -0.655100
     33 O33         42.1780   -22.4590     2.2310 o          1 I68      -0.625100
     34 O9          38.0950   -17.4060    -2.7360 oh         1 I68      -0.658000
     35 H1          40.6430   -27.1000     2.3980 hc         1 I68       0.039589
     36 H2          39.1210   -26.9770     1.5040 hc         1 I68       0.039589
     37 H3          40.6530   -27.1310     0.6240 hc         1 I68       0.039589
     38 H4          42.2590   -25.2060     0.4810 h1         1 I68       0.089700
     39 H5          43.9820   -19.4680     1.1120 hc         1 I68       0.035922
     40 H6          45.6140   -18.9800     0.6500 hc         1 I68       0.035922
     41 H7          44.2320   -18.4690    -0.3340 hc         1 I68       0.035922
     42 H8          42.2570   -20.6820     0.5110 h1         1 I68       0.082700
     43 H9          38.6640   -19.8810    -1.9930 h1         1 I68       0.092700
     44 H10         38.5960   -18.1840     0.5470 hc         1 I68       0.066700
     45 H11         37.2160   -18.5500    -0.4670 hc         1 I68       0.066700
     46 H12         45.5340   -27.0670     5.7280 hc         1 I68       0.044700
     47 H13         46.9590   -26.0600     6.0420 hc         1 I68       0.044700
     48 H14         45.3350   -25.4130     6.3420 hc         1 I68       0.044700
     49 H15         38.8330   -20.6520     1.1080 hc         1 I68       0.087700
     50 H16         36.3210   -20.9710    -0.6380 hc         1 I68       0.063700
     51 H17         37.7890   -21.9500    -0.7060 hc         1 I68       0.063700
     52 H18         35.7200   -22.8160     0.8510 h1         1 I68       0.042700
     53 H19         37.3600   -22.8990     1.5430 h1         1 I68       0.042700
     54 H20         47.4500   -24.0370     4.5890 hc         1 I68       0.044700
     55 H21         46.4640   -23.6670     3.1690 hc         1 I68       0.044700
     56 H22         45.8080   -23.3970     4.7940 hc         1 I68       0.044700
     57 H23         40.1230   -24.8860     3.6530 hc         1 I68       0.039589
     58 H24         39.6680   -23.4390     2.7300 hc         1 I68       0.039589
     59 H25         38.5820   -24.8330     2.7870 hc         1 I68       0.039589
     60 H26         39.5310   -23.5110     0.1940 hc         1 I68       0.039589
     61 H27         40.0250   -24.9590    -0.7090 hc         1 I68       0.039589
     62 H28         38.5120   -24.9530     0.2160 hc         1 I68       0.039589
     63 H29         43.1560   -20.0870    -1.9350 hc         1 I68       0.055700
     64 H30         43.5990   -21.7710    -2.0130 hc         1 I68       0.055700
     65 H31         44.6650   -21.9000     1.1340 hc         1 I68       0.035922
     66 H32         45.3620   -22.6740    -0.3060 hc         1 I68       0.035922
     67 H33         46.3190   -21.5240     0.6470 hc         1 I68       0.035922
     68 H34         46.8150   -20.0250    -1.2870 hc         1 I68       0.035922
     69 H35         45.9950   -21.1770    -2.3560 hc         1 I68       0.035922
     70 H36         45.5250   -19.4660    -2.3670 hc         1 I68       0.035922
     71 H37         46.2980   -27.4530     3.2890 hc         1 I68       0.044700
     72 H38         46.7500   -26.0680     2.2760 hc         1 I68       0.044700
     73 H39         47.7480   -26.5040     3.6690 hc         1 I68       0.044700
     74 H40         40.0630   -18.0510    -2.9420 h1         1 I68       0.023700
     75 H41         39.7460   -17.0670    -1.5030 h1         1 I68       0.023700
     76 H42         42.0960   -25.4660     3.3770 hn         1 I68       0.311500
     77 H43         42.1000   -23.4060    -0.7770 hn         1 I68       0.332500
     78 H44         40.9850   -19.0810    -0.2590 hn         1 I68       0.318500
     79 H45         35.5420   -21.1990     2.8040 hn         1 I68       0.325500
     80 H46         43.7910   -25.8630     4.4830 hn         1 I68       0.308500
     81 H47         38.2960   -16.5920    -3.2510 ho         1 I68       0.448000
     82 O38         40.2950   -21.7240    -1.8390 o          1 I68      -0.608100
@<TRIPOS>BOND
     1     1    10 1   
     2     1    15 1   
     3     1    23 1   
     4     1    30 1   
     5     2    16 1   
     6     2    35 1   
     7     2    36 1   
     8     2    37 1   
     9     3     4 1   
    10     3    16 1   
    11     3    26 1   
    12     3    38 1   
    13     4    27 1   
    14     4    33 2   
    15     5    20 1   
    16     5    39 1   
    17     5    40 1   
    18     5    41 1   
    19     6     7 1   
    20     6    19 1   
    21     6    27 1   
    22     6    42 1   
    23     7    28 1   
    24     7    82 2   
    25     8     9 1   
    26     8    24 1   
    27     8    28 1   
    28     8    43 1   
    29     9    11 1   
    30     9    44 1   
    31     9    45 1   
    32    10    46 1   
    33    10    47 1   
    34    10    48 1   
    35    11    12 1   
    36    11    14 1   
    37    11    49 1   
    38    12    13 1   
    39    12    50 1   
    40    12    51 1   
    41    13    29 1   
    42    13    52 1   
    43    13    53 1   
    44    14    29 1   
    45    14    31 2   
    46    15    54 1   
    47    15    55 1   
    48    15    56 1   
    49    16    17 1   
    50    16    18 1   
    51    17    57 1   
    52    17    58 1   
    53    17    59 1   
    54    18    60 1   
    55    18    61 1   
    56    18    62 1   
    57    19    20 1   
    58    19    63 1   
    59    19    64 1   
    60    20    21 1   
    61    20    22 1   
    62    21    65 1   
    63    21    66 1   
    64    21    67 1   
    65    22    68 1   
    66    22    69 1   
    67    22    70 1   
    68    23    71 1   
    69    23    72 1   
    70    23    73 1   
    71    24    34 1   
    72    24    74 1   
    73    24    75 1   
    74    25    26 1   
    75    25    30 1   
    76    25    32 2   
    77    26    76 1   
    78    27    77 1   
    79    28    78 1   
    80    29    79 1   
    81    30    80 1   
    82    34    81 1   
@<TRIPOS>SUBSTRUCTURE
     1 I68         1 TEMP              0 ****  ****    0 ROOT
