@<TRIPOS>MOLECULE
I68
   82    82     1     0     0
SMALL
bcc


@<TRIPOS>ATOM
      1 C1          45.7210   -25.3050     4.2120 c3         1 I68       0.155400
      2 C10         40.4560   -26.5980     1.3810 c3         1 I68      -0.088100
      3 C11         41.7610   -24.4770     1.3700 c3         1 I68       0.051700
      4 C12         41.7820   -22.9660     1.1390 c          1 I68       0.643100
      5 C13         44.8900   -19.3200    -0.0780 c3         1 I68      -0.086100
      6 C14         42.3450   -21.1790    -0.4360 c3         1 I68       0.035700
      7 C15         41.0180   -20.7710    -1.0780 c          1 I68       0.651100
      8 C17         39.1520   -19.1520    -0.9160 c3         1 I68       0.103700
      9 C19         38.1980   -19.1460     0.2770 c3         1 I68      -0.070400
     10 C2          45.8060   -25.2820     5.7380 c3         1 I68      -0.105100
     11 C20         37.9380   -20.5340     0.8400 c5         1 I68      -0.155700
     12 C21         37.2210   -21.5020    -0.1010 c5         1 I68      -0.094400
     13 C22         36.4490   -22.4290     0.8410 c5         1 I68       0.099000
     14 C24         37.0400   -20.5130     2.0670 c          1 I68       0.707500
     15 C3          46.6090   -24.1940     3.6480 c3         1 I68      -0.105100
     16 C30         40.3320   -25.0740     1.3130 c3         1 I68      -0.042000
     17 C31         39.4310   -24.5970     2.4540 c3         1 I68      -0.088100
     18 C32         39.6940   -24.6890    -0.0230 c3         1 I68      -0.088100
     19 C34         43.5010   -20.9410    -1.4120 c3         1 I68      -0.072400
     20 C35         44.8790   -20.6830    -0.7740 c3         1 I68      -0.047000
     21 C36         45.2680   -21.7690     0.2310 c3         1 I68      -0.086100
     22 C37         45.9090   -20.6630    -1.9050 c3         1 I68      -0.086100
     23 C4          46.1900   -26.6720     3.7130 c3         1 I68      -0.105100
     24 C8          39.3600   -17.7610    -1.5080 c3         1 I68       0.127400
     25 C9          43.7860   -25.0060     2.6400 c          1 I68       0.787100
     26 N10         42.4320   -24.7800     2.6080 ns         1 I68      -0.571900
     27 N13         42.2670   -22.5690    -0.0470 ns         1 I68      -0.548900
     28 N16         40.4370   -19.6940    -0.5260 ns         1 I68      -0.568900
     29 N23         36.2330   -21.5850     1.9960 ns         1 I68      -0.583900
     30 N8          44.3110   -25.0710     3.8860 ns         1 I68      -0.592900
     31 O26         37.0570   -19.6820     2.9610 o          1 I68      -0.633500
     32 O29         44.4400   -25.1630     1.6140 o          1 I68      -0.655100
     33 O33         41.4060   -22.1780     1.9980 o          1 I68      -0.625100
     34 O9          38.1230   -17.2790    -1.9720 oh         1 I68      -0.595800
     35 H1          40.8930   -26.9270     2.3230 hc         1 I68       0.039589
     36 H2          39.4710   -27.0610     1.2920 hc         1 I68       0.039589
     37 H3          41.0760   -26.9830     0.5680 hc         1 I68       0.039589
     38 H4          42.3300   -24.9610     0.5750 h1         1 I68       0.089700
     39 H5          44.1760   -19.2680     0.7470 hc         1 I68       0.035922
     40 H6          45.8770   -19.1100     0.3390 hc         1 I68       0.035922
     41 H7          44.6480   -18.5180    -0.7790 hc         1 I68       0.035922
     42 H8          42.5050   -20.5950     0.4730 h1         1 I68       0.082700
     43 H9          38.7560   -19.8010    -1.7000 h1         1 I68       0.092700
     44 H10         38.6110   -18.5030     1.0600 hc         1 I68       0.066700
     45 H11         37.2510   -18.6960    -0.0310 hc         1 I68       0.066700
     46 H12         45.1830   -26.0620     6.1810 hc         1 I68       0.044700
     47 H13         46.8340   -25.4560     6.0580 hc         1 I68       0.044700
     48 H14         45.4890   -24.3190     6.1410 hc         1 I68       0.044700
     49 H15         38.8860   -20.9800     1.1690 hc         1 I68       0.087700
     50 H16         36.5200   -20.9520    -0.7340 hc         1 I68       0.063700
     51 H17         37.8980   -22.0480    -0.7550 hc         1 I68       0.063700
     52 H18         35.5020   -22.7630     0.4170 h1         1 I68       0.042700
     53 H19         37.0310   -23.3180     1.1040 h1         1 I68       0.042700
     54 H20         47.6380   -24.3320     3.9830 hc         1 I68       0.044700
     55 H21         46.6100   -24.1890     2.5600 hc         1 I68       0.044700
     56 H22         46.2710   -23.2160     3.9960 hc         1 I68       0.044700
     57 H23         39.8370   -24.8470     3.4370 hc         1 I68       0.039589
     58 H24         39.2540   -23.5230     2.4230 hc         1 I68       0.039589
     59 H25         38.4620   -25.0920     2.3790 hc         1 I68       0.039589
     60 H26         39.5490   -23.6120    -0.1180 hc         1 I68       0.039589
     61 H27         40.3020   -25.0210    -0.8680 hc         1 I68       0.039589
     62 H28         38.7120   -25.1550    -0.1200 hc         1 I68       0.039589
     63 H29         43.2640   -20.0760    -2.0390 hc         1 I68       0.055700
     64 H30         43.5660   -21.7930    -2.0970 hc         1 I68       0.055700
     65 H31         44.6190   -21.7730     1.1080 hc         1 I68       0.035922
     66 H32         45.2320   -22.7650    -0.2140 hc         1 I68       0.035922
     67 H33         46.2880   -21.6010     0.5850 hc         1 I68       0.035922
     68 H34         46.9060   -20.4440    -1.5180 hc         1 I68       0.035922
     69 H35         45.9550   -21.6270    -2.4150 hc         1 I68       0.035922
     70 H36         45.6680   -19.9020    -2.6500 hc         1 I68       0.035922
     71 H37         45.5660   -27.4680     4.1240 hc         1 I68       0.044700
     72 H38         46.1600   -26.7380     2.6270 hc         1 I68       0.044700
     73 H39         47.2170   -26.8520     4.0330 hc         1 I68       0.044700
     74 H40         40.0980   -17.8350    -2.3170 h1         1 I68       0.023700
     75 H41         39.7900   -17.1070    -0.7360 h1         1 I68       0.023700
     76 H42         41.9900   -24.4400     3.4490 hn         1 I68       0.311500
     77 H43         42.5450   -23.2640    -0.7220 hn         1 I68       0.332500
     78 H44         40.8860   -19.2740     0.2740 hn         1 I68       0.318500
     79 H45         35.6170   -21.8430     2.7520 hn         1 I68       0.325500
     80 H46         43.6880   -24.9630     4.6700 hn         1 I68       0.308500
     81 H47         38.2360   -16.3650    -2.2460 ho         1 I68       0.409000
     82 O38         40.5570   -21.3960    -2.0210 o          1 I68      -0.608100
@<TRIPOS>BOND
     1     1    10 1   
     2     1    15 1   
     3     1    23 1   
     4     1    30 1   
     5     2    16 1   
     6     2    35 1   
     7     2    36 1   
     8     2    37 1   
     9     3     4 1   
    10     3    16 1   
    11     3    26 1   
    12     3    38 1   
    13     4    27 1   
    14     4    33 2   
    15     5    20 1   
    16     5    39 1   
    17     5    40 1   
    18     5    41 1   
    19     6     7 1   
    20     6    19 1   
    21     6    27 1   
    22     6    42 1   
    23     7    28 1   
    24     7    82 2   
    25     8     9 1   
    26     8    24 1   
    27     8    28 1   
    28     8    43 1   
    29     9    11 1   
    30     9    44 1   
    31     9    45 1   
    32    10    46 1   
    33    10    47 1   
    34    10    48 1   
    35    11    12 1   
    36    11    14 1   
    37    11    49 1   
    38    12    13 1   
    39    12    50 1   
    40    12    51 1   
    41    13    29 1   
    42    13    52 1   
    43    13    53 1   
    44    14    29 1   
    45    14    31 2   
    46    15    54 1   
    47    15    55 1   
    48    15    56 1   
    49    16    17 1   
    50    16    18 1   
    51    17    57 1   
    52    17    58 1   
    53    17    59 1   
    54    18    60 1   
    55    18    61 1   
    56    18    62 1   
    57    19    20 1   
    58    19    63 1   
    59    19    64 1   
    60    20    21 1   
    61    20    22 1   
    62    21    65 1   
    63    21    66 1   
    64    21    67 1   
    65    22    68 1   
    66    22    69 1   
    67    22    70 1   
    68    23    71 1   
    69    23    72 1   
    70    23    73 1   
    71    24    34 1   
    72    24    74 1   
    73    24    75 1   
    74    25    26 1   
    75    25    30 1   
    76    25    32 2   
    77    26    76 1   
    78    27    77 1   
    79    28    78 1   
    80    29    79 1   
    81    30    80 1   
    82    34    81 1   
@<TRIPOS>SUBSTRUCTURE
     1 I68         1 TEMP              0 ****  ****    0 ROOT
