@<TRIPOS>MOLECULE
I69
   78    80     1     0     0
SMALL
No Charge or Current Charge


@<TRIPOS>ATOM
      1 C1          -6.5340   -12.2500   -19.7060 cx         1 I69      -0.114400
      2 C11         -9.5520   -17.0530   -19.3280 c3         1 I69       0.051700
      3 C12         -9.7370   -15.8850   -18.3060 c          1 I69       0.590100
      4 C13         -8.0560   -14.3950   -19.4660 c5         1 I69       0.137000
      5 C14         -9.6270   -13.4050   -17.8220 c5         1 I69       0.028700
      6 C15        -11.1520   -13.0900   -17.7360 c          1 I69       0.608100
      7 C16         -7.6670   -12.9810   -19.0360 cx         1 I69      -0.144000
      8 C17        -12.7930   -12.2270   -16.0220 c3         1 I69       0.106700
      9 C19        -13.1330   -13.1080   -14.7890 c3         1 I69      -0.070400
     10 C2          -6.3770   -12.7760   -18.2840 cx         1 I69      -0.114400
     11 C20        -12.9620   -14.6410   -15.0010 c5         1 I69      -0.156700
     12 C21        -13.8500   -15.2660   -16.1130 c5         1 I69      -0.091400
     13 C22        -13.8110   -16.7680   -15.7220 c5         1 I69       0.100000
     14 C24        -13.3250   -15.4860   -13.7740 c          1 I69       0.564000
     15 C27         -5.9880   -20.1280   -16.4650 c3         1 I69      -0.104100
     16 C28         -7.8960   -21.4430   -15.4710 c3         1 I69      -0.104100
     17 C29         -7.4980   -19.0740   -14.7050 c3         1 I69      -0.104100
     18 C30        -10.7110   -17.1880   -20.3810 c3         1 I69      -0.038000
     19 C31        -10.7840   -15.9210   -21.2760 c3         1 I69      -0.088767
     20 C32        -12.0870   -17.3830   -19.6840 c3         1 I69      -0.088767
     21 C34         -8.9200   -12.2440   -18.5790 c5         1 I69      -0.051400
     22 C7          -7.4350   -20.0360   -15.9190 c3         1 I69       0.149400
     23 C8         -12.9460   -10.7050   -15.7570 c3         1 I69       0.149600
     24 N10         -9.3400   -18.2850   -18.5540 ns         1 I69      -0.501900
     25 N13         -9.2890   -14.5940   -18.6670 n          1 I69      -0.385800
     26 N16        -11.4380   -12.5300   -16.5070 ns         1 I69      -0.502900
     27 N23        -13.8250   -16.6620   -14.2650 ns         1 I69      -0.514900
     28 N8          -8.3570   -19.5950   -16.9720 ns         1 I69      -0.514900
     29 O26        -13.4100   -15.1630   -12.6010 o          1 I69      -0.564000
     30 O29         -7.5070   -17.5150   -17.4910 o          1 I69      -0.657100
     31 O33        -10.3470   -16.0380   -17.2490 o          1 I69      -0.632100
     32 O38        -12.0020   -13.2990   -18.5930 o          1 I69      -0.602100
     33 H1          -5.9920   -12.7620   -20.4980 hc         1 I69       0.077700
     34 H2          -6.6280   -11.1750   -19.8400 hc         1 I69       0.077700
     35 H3          -8.6230   -16.8680   -19.8800 h1         1 I69       0.090700
     36 H4          -8.2700   -14.4570   -20.5410 h1         1 I69       0.066700
     37 H5          -7.2860   -15.1410   -19.2240 h1         1 I69       0.066700
     38 H6          -9.2160   -13.5320   -16.8110 h1         1 I69       0.066700
     39 H7         -13.5100   -12.4810   -16.8140 h1         1 I69       0.093700
     40 H8         -12.5010   -12.7880   -13.9510 hc         1 I69       0.064200
     41 H9         -14.1660   -12.9010   -14.4840 hc         1 I69       0.064200
     42 H10         -5.7260   -13.6340   -18.1330 hc         1 I69       0.077700
     43 H11         -6.3600   -12.0490   -17.4760 hc         1 I69       0.077700
     44 H12        -11.9160   -14.8700   -15.2350 hc         1 I69       0.096700
     45 H13        -13.4710   -15.0880   -17.1250 hc         1 I69       0.064200
     46 H14        -14.8750   -14.8790   -16.0710 hc         1 I69       0.064200
     47 H15        -14.6740   -17.3200   -16.1190 h1         1 I69       0.042200
     48 H16        -12.8920   -17.2530   -16.0790 h1         1 I69       0.042200
     49 H17        -10.4620   -19.3520   -20.7480 hc         1 I69       0.039700
     50 H18        -11.1990   -18.4780   -22.0960 hc         1 I69       0.039700
     51 H19         -9.4590   -18.3230   -21.7890 hc         1 I69       0.039700
     52 H20         -5.9470   -20.7720   -17.3520 hc         1 I69       0.044256
     53 H21         -5.5980   -19.1420   -16.7420 hc         1 I69       0.044256
     54 H22         -5.3140   -20.5490   -15.7100 hc         1 I69       0.044256
     55 H23         -8.9220   -21.4150   -15.0830 hc         1 I69       0.044256
     56 H24         -7.8700   -22.1500   -16.3100 hc         1 I69       0.044256
     57 H25         -7.2460   -21.8350   -14.6800 hc         1 I69       0.044256
     58 H26         -8.5280   -18.9700   -14.3430 hc         1 I69       0.044256
     59 H27         -6.8850   -19.4520   -13.8790 hc         1 I69       0.044256
     60 H28         -7.1260   -18.0760   -14.9620 hc         1 I69       0.044256
     61 H29        -11.0370   -15.0290   -20.6920 hc         1 I69       0.039700
     62 H30         -9.8280   -15.7410   -21.7820 hc         1 I69       0.039700
     63 H31        -11.5540   -16.0330   -22.0490 hc         1 I69       0.039700
     64 H32        -12.3560   -16.5080   -19.0800 hc         1 I69       0.039700
     65 H33        -12.8830   -17.5260   -20.4260 hc         1 I69       0.039700
     66 H34        -12.0840   -18.2610   -19.0270 hc         1 I69       0.039700
     67 H35         -8.7230   -11.3780   -17.9360 hc         1 I69       0.064200
     68 H36         -9.5090   -11.8970   -19.4360 hc         1 I69       0.064200
     69 H37        -12.2730   -10.4110   -14.9400 h1         1 I69       0.021700
     70 H38        -12.6350   -10.1570   -16.6560 h1         1 I69       0.021700
     71 H39        -10.0580   -18.9890   -18.5640 hn         1 I69       0.311500
     72 H40        -10.6600   -12.3940   -15.8720 hn         1 I69       0.313500
     73 H41        -14.2110   -17.3410   -13.6190 hn         1 I69       0.322500
     74 H42         -9.1000   -20.2310   -17.2270 hn         1 I69       0.303500
     75 H43        -14.3300    -9.3970   -15.2780 ho         1 I69       0.447000
     76 O9         -14.3030   -10.3690   -15.4280 oh         1 I69      -0.656000
     77 C26        -10.4410   -18.4090   -21.3060 c3         1 I69      -0.088767
     78 C9          -8.3270   -18.4030   -17.6510 c          1 I69       0.649100
@<TRIPOS>BOND
     1     1     7 1   
     2     1    10 1   
     3     1    33 1   
     4     1    34 1   
     5     2     3 1   
     6     2    18 1   
     7     2    24 1   
     8     2    35 1   
     9     3    25 1   
    10     3    31 2   
    11     4     7 1   
    12     4    25 1   
    13     4    36 1   
    14     4    37 1   
    15     5     6 1   
    16     5    21 1   
    17     5    25 1   
    18     5    38 1   
    19     6    26 1   
    20     6    32 2   
    21     7    10 1   
    22     7    21 1   
    23     8     9 1   
    24     8    23 1   
    25     8    26 1   
    26     8    39 1   
    27     9    11 1   
    28     9    40 1   
    29     9    41 1   
    30    10    42 1   
    31    10    43 1   
    32    11    12 1   
    33    11    14 1   
    34    11    44 1   
    35    12    13 1   
    36    12    45 1   
    37    12    46 1   
    38    13    27 1   
    39    13    47 1   
    40    13    48 1   
    41    14    27 1   
    42    14    29 2   
    43    15    22 1   
    44    15    52 1   
    45    15    53 1   
    46    15    54 1   
    47    16    22 1   
    48    16    55 1   
    49    16    56 1   
    50    16    57 1   
    51    17    22 1   
    52    17    58 1   
    53    17    59 1   
    54    17    60 1   
    55    18    19 1   
    56    18    20 1   
    57    18    77 1   
    58    19    61 1   
    59    19    62 1   
    60    19    63 1   
    61    20    64 1   
    62    20    65 1   
    63    20    66 1   
    64    21    67 1   
    65    21    68 1   
    66    22    28 1   
    67    23    69 1   
    68    23    70 1   
    69    23    76 1   
    70    24    71 1   
    71    24    78 1   
    72    26    72 1   
    73    27    73 1   
    74    28    74 1   
    75    28    78 1   
    76    30    78 2   
    77    49    77 1   
    78    50    77 1   
    79    51    77 1   
    80    75    76 1   
@<TRIPOS>SUBSTRUCTURE
     1 I69         1 TEMP              0 ****  ****    0 ROOT
