@<TRIPOS>MOLECULE
I69
   78    80     1     0     0
SMALL
bcc


@<TRIPOS>ATOM
      1 C1          -6.2990   -12.6310   -19.0440 cx         1 I69      -0.114400
      2 C11         -9.6390   -17.0250   -18.8950 c3         1 I69       0.051700
      3 C12         -9.9520   -15.8270   -18.0000 c          1 I69       0.657100
      4 C13         -8.2450   -14.3920   -19.1750 c5         1 I69       0.137000
      5 C14         -9.6080   -13.5210   -17.3760 c5         1 I69       0.028700
      6 C15        -11.0700   -13.1010   -17.4570 c          1 I69       0.675100
      7 C16         -7.5590   -13.2210   -18.5210 cx         1 I69      -0.144000
      8 C17        -12.9320   -12.1770   -16.1120 c3         1 I69       0.106700
      9 C19        -13.7130   -13.0590   -15.1390 c3         1 I69      -0.070400
     10 C2          -6.2820   -13.4340   -17.7710 cx         1 I69      -0.114400
     11 C20        -13.8320   -14.5030   -15.5990 c5         1 I69      -0.156700
     12 C21        -14.6070   -14.7210   -16.8990 c5         1 I69      -0.091400
     13 C22        -15.2330   -16.1070   -16.7300 c5         1 I69       0.100000
     14 C24        -14.5750   -15.3740   -14.5970 c          1 I69       0.706500
     15 C27         -5.9180   -20.6950   -17.4420 c3         1 I69      -0.104100
     16 C28         -6.8780   -20.8140   -15.1440 c3         1 I69      -0.104100
     17 C29         -5.5520   -18.8230   -15.8050 c3         1 I69      -0.104100
     18 C30        -10.7890   -17.3670   -19.8790 c3         1 I69      -0.038000
     19 C31        -11.0980   -16.1310   -20.7250 c3         1 I69      -0.088767
     20 C32        -12.0710   -17.8310   -19.1850 c3         1 I69      -0.088767
     21 C34         -8.6820   -12.4200   -17.9130 c5         1 I69      -0.051400
     22 C7          -6.5380   -19.8800   -16.3050 c3         1 I69       0.149400
     23 C8         -12.8460   -10.7280   -15.6400 c3         1 I69       0.126400
     24 N10         -9.2780   -18.1430   -18.0590 ns         1 I69      -0.568900
     25 N13         -9.3320   -14.6610   -18.2380 n          1 I69      -0.452800
     26 N16        -11.5860   -12.6800   -16.2930 ns         1 I69      -0.569900
     27 N23        -15.3560   -16.2170   -15.2930 ns         1 I69      -0.581900
     28 N8          -7.8100   -19.2790   -16.7180 ns         1 I69      -0.581900
     29 O26        -14.4710   -15.3260   -13.3820 o          1 I69      -0.639500
     30 O29         -7.0400   -17.8080   -18.2810 o          1 I69      -0.657100
     31 O33        -10.7400   -15.9410   -17.0670 o          1 I69      -0.632100
     32 O38        -11.6700   -13.0950   -18.5210 o          1 I69      -0.602100
     33 H1          -5.8570   -13.0720   -19.9300 hc         1 I69       0.077700
     34 H2          -6.1720   -11.5580   -18.9720 hc         1 I69       0.077700
     35 H3          -8.7740   -16.8130   -19.5220 h1         1 I69       0.090700
     36 H4          -8.6360   -14.1280   -20.1630 h1         1 I69       0.066700
     37 H5          -7.5810   -15.2480   -19.2840 h1         1 I69       0.066700
     38 H6          -9.3370   -13.7650   -16.3430 h1         1 I69       0.066700
     39 H7         -13.4160   -12.1910   -17.0900 h1         1 I69       0.093700
     40 H8         -13.2250   -13.0270   -14.1590 hc         1 I69       0.064200
     41 H9         -14.7120   -12.6380   -15.0070 hc         1 I69       0.064200
     42 H10         -5.8340   -14.4210   -17.7950 hc         1 I69       0.077700
     43 H11         -6.1470   -12.9030   -16.8370 hc         1 I69       0.077700
     44 H12        -12.8300   -14.9380   -15.7000 hc         1 I69       0.096700
     45 H13        -13.9820   -14.6610   -17.7880 hc         1 I69       0.064200
     46 H14        -15.3930   -13.9670   -16.9940 hc         1 I69       0.064200
     47 H15        -16.2040   -16.1910   -17.2160 h1         1 I69       0.042200
     48 H16        -14.5870   -16.8920   -17.1340 h1         1 I69       0.042200
     49 H17        -10.0710   -19.3970   -20.2580 hc         1 I69       0.039700
     50 H18        -11.0530   -18.7130   -21.5520 hc         1 I69       0.039700
     51 H19         -9.3860   -18.1780   -21.3360 hc         1 I69       0.039700
     52 H20         -6.6070   -21.4700   -17.7840 hc         1 I69       0.044256
     53 H21         -5.6610   -20.0680   -18.2940 hc         1 I69       0.044256
     54 H22         -5.0050   -21.1870   -17.1020 hc         1 I69       0.044256
     55 H23         -7.3140   -20.2620   -14.3100 hc         1 I69       0.044256
     56 H24         -7.5830   -21.5910   -15.4480 hc         1 I69       0.044256
     57 H25         -5.9760   -21.3090   -14.7840 hc         1 I69       0.044256
     58 H26         -6.0020   -18.2210   -15.0140 hc         1 I69       0.044256
     59 H27         -4.6690   -19.3140   -15.3930 hc         1 I69       0.044256
     60 H28         -5.2270   -18.1580   -16.6010 hc         1 I69       0.044256
     61 H29        -11.4840   -15.3020   -20.1300 hc         1 I69       0.039700
     62 H30        -10.2110   -15.7790   -21.2580 hc         1 I69       0.039700
     63 H31        -11.8550   -16.3710   -21.4740 hc         1 I69       0.039700
     64 H32        -12.5070   -17.0550   -18.5580 hc         1 I69       0.039700
     65 H33        -12.8110   -18.0950   -19.9420 hc         1 I69       0.039700
     66 H34        -11.9130   -18.7180   -18.5690 hc         1 I69       0.039700
     67 H35         -8.3580   -11.7440   -17.1230 hc         1 I69       0.064200
     68 H36         -9.1870   -11.8290   -18.6820 hc         1 I69       0.064200
     69 H37        -12.3220   -10.7000   -14.6740 h1         1 I69       0.021700
     70 H38        -12.2320   -10.1670   -16.3560 h1         1 I69       0.021700
     71 H39         -9.9950   -18.4720   -17.4310 hn         1 I69       0.311500
     72 H40        -11.0220   -12.7760   -15.4620 hn         1 I69       0.313500
     73 H41        -15.8600   -16.9680   -14.8470 hn         1 I69       0.322500
     74 H42         -8.6350   -19.7630   -16.4010 hn         1 I69       0.303500
     75 H43        -14.0880    -9.3090   -15.1970 ho         1 I69       0.408000
     76 O9         -14.1470   -10.2030   -15.5450 oh         1 I69      -0.593800
     77 C26        -10.2920   -18.4800   -20.8060 c3         1 I69      -0.088767
     78 C9          -7.9700   -18.3740   -17.7150 c          1 I69       0.783100
@<TRIPOS>BOND
     1     1     7 1   
     2     1    10 1   
     3     1    33 1   
     4     1    34 1   
     5     2     3 1   
     6     2    18 1   
     7     2    24 1   
     8     2    35 1   
     9     3    25 1   
    10     3    31 2   
    11     4     7 1   
    12     4    25 1   
    13     4    36 1   
    14     4    37 1   
    15     5     6 1   
    16     5    21 1   
    17     5    25 1   
    18     5    38 1   
    19     6    26 1   
    20     6    32 2   
    21     7    10 1   
    22     7    21 1   
    23     8     9 1   
    24     8    23 1   
    25     8    26 1   
    26     8    39 1   
    27     9    11 1   
    28     9    40 1   
    29     9    41 1   
    30    10    42 1   
    31    10    43 1   
    32    11    12 1   
    33    11    14 1   
    34    11    44 1   
    35    12    13 1   
    36    12    45 1   
    37    12    46 1   
    38    13    27 1   
    39    13    47 1   
    40    13    48 1   
    41    14    27 1   
    42    14    29 2   
    43    15    22 1   
    44    15    52 1   
    45    15    53 1   
    46    15    54 1   
    47    16    22 1   
    48    16    55 1   
    49    16    56 1   
    50    16    57 1   
    51    17    22 1   
    52    17    58 1   
    53    17    59 1   
    54    17    60 1   
    55    18    19 1   
    56    18    20 1   
    57    18    77 1   
    58    19    61 1   
    59    19    62 1   
    60    19    63 1   
    61    20    64 1   
    62    20    65 1   
    63    20    66 1   
    64    21    67 1   
    65    21    68 1   
    66    22    28 1   
    67    23    69 1   
    68    23    70 1   
    69    23    76 1   
    70    24    71 1   
    71    24    78 1   
    72    26    72 1   
    73    27    73 1   
    74    28    74 1   
    75    28    78 1   
    76    30    78 2   
    77    49    77 1   
    78    50    77 1   
    79    51    77 1   
    80    75    76 1   
@<TRIPOS>SUBSTRUCTURE
     1 I69         1 TEMP              0 ****  ****    0 ROOT
