@<TRIPOS>MOLECULE
I6A
   29    31     1     0     0
SMALL
No Charge or Current Charge


@<TRIPOS>ATOM
      1 C1          37.5530    32.6470    12.2070 cp         1 I6A      -0.058000
      2 C2          36.6620    32.7940    13.3080 ca         1 I6A      -0.075000
      3 C3          38.4510    31.5270    12.1970 ca         1 I6A       0.131100
      4 C13         37.4420    35.9790    10.3360 ca         1 I6A       0.327900
      5 C14         37.4730    34.2950     8.7490 ca         1 I6A       0.327900
      6 C15         37.5130    33.3010     9.7400 ca         1 I6A      -0.149500
      7 C16         37.4800    35.0480    11.3870 ca         1 I6A      -0.149500
      8 C17         40.2920    30.3620    11.0290 c3         1 I6A       0.147900
      9 C4          36.6850    31.8390    14.3310 ca         1 I6A      -0.087200
     10 C5          37.5410    30.7790    14.2960 ca         1 I6A      -0.052800
     11 N6          35.9170    31.7710    15.4850 na         1 I6A      -0.219700
     12 C7          38.4460    30.5780    13.2520 ca         1 I6A      -0.162000
     13 C8          36.2750    30.6320    16.2400 cc         1 I6A      -0.151100
     14 C9          37.2790    30.0290    15.4950 cd         1 I6A      -0.254200
     15 C10         37.5260    33.6630    11.1070 cp         1 I6A       0.022000
     16 N11         37.4390    35.6180     9.0330 nb         1 I6A      -0.666000
     17 O12         39.3360    31.4310    11.1380 os         1 I6A      -0.341100
     18 H1          35.9650    33.6270    13.3520 ha         1 I6A       0.119000
     19 H2          37.4130    37.0480    10.5430 h4         1 I6A       0.015600
     20 H3          37.4630    34.0250     7.6930 h4         1 I6A       0.015600
     21 H4          37.5240    32.2570     9.4440 ha         1 I6A       0.125000
     22 H5          37.4850    35.4040    12.4130 ha         1 I6A       0.125000
     23 H6          40.8900    30.4790    10.1160 h1         1 I6A       0.039700
     24 H7          40.9780    30.3620    11.8860 h1         1 I6A       0.039700
     25 H8          39.7860    29.3890    10.9820 h1         1 I6A       0.039700
     26 H9          35.2020    32.4440    15.7460 hn         1 I6A       0.350000
     27 H10         39.1150    29.7230    13.2730 ha         1 I6A       0.122000
     28 H11         35.8120    30.3640    17.1870 h4         1 I6A       0.212000
     29 H12         37.7940    29.1150    15.7820 ha         1 I6A       0.206000
@<TRIPOS>BOND
     1     1     2 ar  
     2     1     3 ar  
     3     1    15 1   
     4     2     9 ar  
     5     2    18 1   
     6     3    12 ar  
     7     3    17 1   
     8     4     7 ar  
     9     4    16 ar  
    10     4    19 1   
    11     5     6 ar  
    12     5    16 ar  
    13     5    20 1   
    14     6    15 ar  
    15     6    21 1   
    16     7    15 ar  
    17     7    22 1   
    18     8    17 1   
    19     8    23 1   
    20     8    24 1   
    21     8    25 1   
    22     9    10 ar  
    23     9    11 1   
    24    10    12 ar  
    25    10    14 1   
    26    11    13 1   
    27    11    26 1   
    28    12    27 1   
    29    13    14 2   
    30    13    28 1   
    31    14    29 1   
@<TRIPOS>SUBSTRUCTURE
     1 I6A         1 TEMP              0 ****  ****    0 ROOT
