@<TRIPOS>MOLECULE
I6A
   29    31     1     0     0
SMALL
bcc


@<TRIPOS>ATOM
      1 C1          37.5540    32.6280    12.2060 cp         1 I6A      -0.058000
      2 C2          36.6760    32.7910    13.2650 ca         1 I6A      -0.093000
      3 C3          38.4570    31.5290    12.1970 ca         1 I6A       0.131100
      4 C13         37.5180    35.9020    10.3610 ca         1 I6A       0.393200
      5 C14         37.3830    34.2600     8.8070 ca         1 I6A       0.393200
      6 C15         37.4400    33.2650     9.7690 ca         1 I6A      -0.232800
      7 C16         37.5810    34.9860    11.3990 ca         1 I6A      -0.232800
      8 C17         40.2620    30.4490    11.0980 c3         1 I6A       0.124700
      9 C4          36.6800    31.8560    14.2920 ca         1 I6A      -0.087200
     10 C5          37.5600    30.7570    14.2850 ca         1 I6A      -0.052800
     11 N6          35.9190    31.7690    15.4260 na         1 I6A      -0.169400
     12 C7          38.4610    30.6030    13.2220 ca         1 I6A      -0.180000
     13 C8          36.2880    30.6630    16.1280 cc         1 I6A      -0.101100
     14 C9          37.2930    30.0080    15.4700 cd         1 I6A      -0.204200
     15 C10         37.5410    33.6220    11.1140 cp         1 I6A       0.022000
     16 N11         37.4220    35.5600     9.0820 nb         1 I6A      -0.666000
     17 O12         39.3080    31.4860    11.1480 os         1 I6A      -0.317900
     18 H1          35.9870    33.6270    13.2720 ha         1 I6A       0.137000
     19 H2          37.5520    36.9640    10.5780 h4         1 I6A       0.015600
     20 H3          37.2960    33.9890     7.7610 h4         1 I6A       0.015600
     21 H4          37.3840    32.2300     9.4650 ha         1 I6A       0.143000
     22 H5          37.6700    35.3360    12.4190 ha         1 I6A       0.143000
     23 H6          40.8450    30.6090    10.1940 h1         1 I6A       0.039700
     24 H7          40.9350    30.4700    11.9600 h1         1 I6A       0.039700
     25 H8          39.7940    29.4620    11.0450 h1         1 I6A       0.039700
     26 H9          35.2020    32.4190    15.7030 hn         1 I6A       0.299700
     27 H10         39.1470    29.7660    13.2280 ha         1 I6A       0.140000
     28 H11         35.8030    30.4190    17.0600 h4         1 I6A       0.162000
     29 H12         37.7790    29.1020    15.7940 ha         1 I6A       0.156000
@<TRIPOS>BOND
     1     1     2 ar  
     2     1     3 ar  
     3     1    15 1   
     4     2     9 ar  
     5     2    18 1   
     6     3    12 ar  
     7     3    17 1   
     8     4     7 ar  
     9     4    16 ar  
    10     4    19 1   
    11     5     6 ar  
    12     5    16 ar  
    13     5    20 1   
    14     6    15 ar  
    15     6    21 1   
    16     7    15 ar  
    17     7    22 1   
    18     8    17 1   
    19     8    23 1   
    20     8    24 1   
    21     8    25 1   
    22     9    10 ar  
    23     9    11 1   
    24    10    12 ar  
    25    10    14 1   
    26    11    13 1   
    27    11    26 1   
    28    12    27 1   
    29    13    14 2   
    30    13    28 1   
    31    14    29 1   
@<TRIPOS>SUBSTRUCTURE
     1 I6A         1 TEMP              0 ****  ****    0 ROOT
