@<TRIPOS>MOLECULE
I6C
   78    83     1     0     0
SMALL
No Charge or Current Charge


@<TRIPOS>ATOM
      1 C01         28.2100   -11.3500   -19.9020 c3         1 I6C      -0.089100
      2 C02         28.1040   -12.6020   -20.7960 c3         1 I6C       0.166800
      3 C04         28.1140   -15.0670   -20.9650 c6         1 I6C       0.164300
      4 C05         28.0570   -16.4240   -20.1920 c6         1 I6C       0.163800
      5 C07         26.7530   -17.8470   -18.6400 c3         1 I6C       0.213100
      6 C08         25.4370   -18.0560   -17.8940 ca         1 I6C      -0.061300
      7 C09         25.4130   -18.0950   -16.4880 ca         1 I6C      -0.089000
      8 C10         24.1980   -18.2830   -15.7950 ca         1 I6C      -0.163300
      9 C11         23.0010   -18.4200   -16.5320 ca         1 I6C      -0.086000
     10 C12         23.0130   -18.3880   -17.9440 ca         1 I6C      -0.027000
     11 C14         20.5210   -18.8130   -18.4430 c          1 I6C       0.622700
     12 C16         19.5570   -18.8260   -19.6190 ca         1 I6C      -0.161600
     13 C17         19.9780   -18.5460   -20.9350 ca         1 I6C      -0.067000
     14 C18         19.0540   -18.5540   -21.9860 ca         1 I6C      -0.128000
     15 C19         17.6930   -18.8410   -21.7690 ca         1 I6C      -0.007300
     16 C20         16.7980   -18.8990   -23.0080 c3         1 I6C      -0.055800
     17 C21         17.2370   -19.1400   -20.4470 ca         1 I6C      -0.158500
     18 C22         18.1920   -19.1120   -19.3960 ca         1 I6C      -0.033000
     19 C23         15.8080   -19.3890   -20.1080 cc         1 I6C       0.368500
     20 C26         12.4460   -18.4030   -20.9680 cc         1 I6C      -0.231100
     21 C27         11.4220   -18.9250   -20.1820 cd         1 I6C       0.193200
     22 C29          9.4860   -17.8580   -21.3410 c          1 I6C       0.640100
     23 C31          7.9820   -17.8160   -21.2190 cx         1 I6C      -0.248700
     24 C32          7.2760   -16.4760   -21.3000 cx         1 I6C      -0.092900
     25 C33          7.3650   -17.1990   -19.9770 cx         1 I6C      -0.092900
     26 C35         13.2430   -19.7170   -19.3640 cd         1 I6C      -0.111000
     27 C36         14.2070   -20.4030   -18.5780 cd         1 I6C      -0.022000
     28 C37         15.5050   -20.2180   -18.9640 cc         1 I6C      -0.157000
     29 C38         24.2370   -18.2030   -18.6110 ca         1 I6C      -0.121000
     30 C39         24.1660   -18.3080   -14.2610 c3         1 I6C       0.343300
     31 C43         26.7180   -15.3660   -18.4380 c6         1 I6C       0.163800
     32 C44         26.7810   -14.0080   -19.2080 c6         1 I6C       0.164300
     33 F40         23.2450   -19.1780   -13.7840 f          1 I6C      -0.112333
     34 F41         23.8580   -17.0920   -13.7570 f          1 I6C      -0.112333
     35 F42         25.3520   -18.6700   -13.7210 f          1 I6C      -0.112333
     36 N03         28.0110   -13.8830   -20.0560 n3         1 I6C      -0.721600
     37 N06         26.8280   -16.5480   -19.3510 n3         1 I6C      -0.731600
     38 N13         21.8440   -18.5150   -18.7480 ns         1 I6C      -0.143000
     39 N24         14.8880   -18.7250   -20.8190 nd         1 I6C      -0.456800
     40 N25         13.5750   -18.9270   -20.4230 na         1 I6C       0.240900
     41 N28         10.0870   -18.6490   -20.3870 ns         1 I6C      -0.386100
     42 N34         11.8920   -19.7560   -19.1640 nd         1 I6C      -0.313600
     43 O15         20.1340   -19.0620   -17.3060 o          1 I6C      -0.582100
     44 O30         10.0840   -17.2490   -22.2160 o          1 I6C      -0.594100
     45 H1          28.3950   -10.4630   -20.5200 hc         1 I6C       0.038700
     46 H2          27.2840   -11.1800   -19.3410 hc         1 I6C       0.038700
     47 H3          29.0390   -11.4510   -19.1920 hc         1 I6C       0.038700
     48 H4          27.2360   -12.4860   -21.4600 h1         1 I6C       0.028700
     49 H5          28.9960   -12.6220   -21.4370 h1         1 I6C       0.028700
     50 H6          29.0550   -15.0290   -21.5330 h1         1 I6C       0.037950
     51 H7          27.2950   -15.0510   -21.7000 h1         1 I6C       0.037950
     52 H8          28.1010   -17.2450   -20.9230 h1         1 I6C       0.042200
     53 H9          28.9560   -16.5050   -19.5630 h1         1 I6C       0.042200
     54 H10         26.8640   -18.6690   -19.3600 h1         1 I6C       0.044700
     55 H11         27.5890   -17.9360   -17.9310 h1         1 I6C       0.044700
     56 H12         26.3430   -17.9690   -15.9370 ha         1 I6C       0.131000
     57 H13         22.0680   -18.5400   -15.9880 ha         1 I6C       0.166000
     58 H14         21.0150   -18.3180   -21.1670 ha         1 I6C       0.111000
     59 H15         19.4080   -18.3390   -22.9920 ha         1 I6C       0.121000
     60 H16         16.1310   -19.7680   -22.9830 hc         1 I6C       0.054700
     61 H17         16.1870   -17.9940   -23.0990 hc         1 I6C       0.054700
     62 H18         17.3850   -18.9840   -23.9300 hc         1 I6C       0.054700
     63 H19         17.8700   -19.2730   -18.3700 ha         1 I6C       0.144000
     64 H20         12.4600   -17.7400   -21.8200 h4         1 I6C       0.268000
     65 H21          7.4660   -18.6670   -21.6560 hc         1 I6C       0.088700
     66 H22          7.8810   -15.5810   -21.4280 hc         1 I6C       0.083950
     67 H23          6.3070   -16.4410   -21.7940 hc         1 I6C       0.083950
     68 H24          8.0260   -16.7810   -19.2210 hc         1 I6C       0.083950
     69 H25          6.4550   -17.6480   -19.5840 hc         1 I6C       0.083950
     70 H26         13.9330   -21.0320   -17.7350 ha         1 I6C       0.150000
     71 H27         16.2970   -20.7300   -18.4330 ha         1 I6C       0.141000
     72 H28         24.2620   -18.1650   -19.6980 ha         1 I6C       0.131000
     73 H29         25.7720   -15.3990   -17.8770 h1         1 I6C       0.042200
     74 H30         27.5300   -15.3850   -17.6960 h1         1 I6C       0.042200
     75 H31         26.7370   -13.1980   -18.4660 h1         1 I6C       0.037950
     76 H32         25.8800   -13.9190   -19.8340 h1         1 I6C       0.037950
     77 H35         22.0130   -18.3530   -19.7310 hn         1 I6C       0.155000
     78 H36          9.4240   -19.0770   -19.7560 hn         1 I6C       0.337500
@<TRIPOS>BOND
     1     1     2 1   
     2     1    45 1   
     3     1    46 1   
     4     1    47 1   
     5     2    36 1   
     6     2    48 1   
     7     2    49 1   
     8     3     4 1   
     9     3    36 1   
    10     3    50 1   
    11     3    51 1   
    12     4    37 1   
    13     4    52 1   
    14     4    53 1   
    15     5     6 1   
    16     5    37 1   
    17     5    54 1   
    18     5    55 1   
    19     6     7 ar  
    20     6    29 ar  
    21     7     8 ar  
    22     7    56 1   
    23     8     9 ar  
    24     8    30 1   
    25     9    10 ar  
    26     9    57 1   
    27    10    29 ar  
    28    10    38 1   
    29    11    12 1   
    30    11    38 1   
    31    11    43 2   
    32    12    13 ar  
    33    12    18 ar  
    34    13    14 ar  
    35    13    58 1   
    36    14    15 ar  
    37    14    59 1   
    38    15    16 1   
    39    15    17 ar  
    40    16    60 1   
    41    16    61 1   
    42    16    62 1   
    43    17    18 ar  
    44    17    19 1   
    45    18    63 1   
    46    19    28 1   
    47    19    39 2   
    48    20    21 2   
    49    20    40 1   
    50    20    64 1   
    51    21    41 1   
    52    21    42 1   
    53    22    23 1   
    54    22    41 1   
    55    22    44 2   
    56    23    24 1   
    57    23    25 1   
    58    23    65 1   
    59    24    25 1   
    60    24    66 1   
    61    24    67 1   
    62    25    68 1   
    63    25    69 1   
    64    26    27 1   
    65    26    40 1   
    66    26    42 2   
    67    27    28 2   
    68    27    70 1   
    69    28    71 1   
    70    29    72 1   
    71    30    33 1   
    72    30    34 1   
    73    30    35 1   
    74    31    32 1   
    75    31    37 1   
    76    31    73 1   
    77    31    74 1   
    78    32    36 1   
    79    32    75 1   
    80    32    76 1   
    81    38    77 1   
    82    39    40 1   
    83    41    78 1   
@<TRIPOS>SUBSTRUCTURE
     1 I6C         1 TEMP              0 ****  ****    0 ROOT
