@<TRIPOS>MOLECULE
I6C
   78    83     1     0     0
SMALL
abcg2


@<TRIPOS>ATOM
      1 C01         27.0950   -11.5130   -20.7730 c3         1 I6C      -0.089100
      2 C02         27.2350   -12.9350   -21.3020 c3         1 I6C       0.166800
      3 C04         27.7440   -15.2330   -20.7980 c6         1 I6C       0.164300
      4 C05         27.8970   -16.2710   -19.7000 c6         1 I6C       0.163800
      5 C07         26.7330   -17.4620   -17.9500 c3         1 I6C       0.213100
      6 C08         25.3840   -17.8860   -17.4130 ca         1 I6C      -0.061300
      7 C09         25.2340   -18.2200   -16.0670 ca         1 I6C      -0.089000
      8 C10         24.0000   -18.6610   -15.6070 ca         1 I6C      -0.163300
      9 C11         22.8980   -18.7650   -16.4490 ca         1 I6C      -0.086000
     10 C12         23.0480   -18.4260   -17.7940 ca         1 I6C      -0.027000
     11 C14         20.7650   -19.0350   -18.5950 c          1 I6C       0.622700
     12 C16         19.8740   -18.9350   -19.7940 ca         1 I6C      -0.161600
     13 C17         20.3050   -18.5810   -21.0730 ca         1 I6C      -0.067000
     14 C18         19.3990   -18.5150   -22.1200 ca         1 I6C      -0.128000
     15 C19         18.0410   -18.7820   -21.9410 ca         1 I6C      -0.007300
     16 C20         17.1070   -18.7030   -23.1150 c3         1 I6C      -0.055800
     17 C21         17.6080   -19.1450   -20.6520 ca         1 I6C      -0.158500
     18 C22         18.5250   -19.2300   -19.6080 ca         1 I6C      -0.033000
     19 C23         16.1910   -19.4750   -20.3520 cc         1 I6C       0.368500
     20 C26         12.9230   -18.0960   -20.6150 cc         1 I6C      -0.231100
     21 C27         11.8600   -18.8390   -20.1250 cd         1 I6C       0.193200
     22 C29          9.9360   -17.3660   -20.5120 c          1 I6C       0.640100
     23 C31          8.4690   -17.2970   -20.3050 cx         1 I6C      -0.248700
     24 C32          7.6440   -16.5250   -21.3140 cx         1 I6C      -0.092900
     25 C33          7.8700   -15.9470   -19.9610 cx         1 I6C      -0.092900
     26 C35         13.5860   -20.0560   -19.7650 cd         1 I6C      -0.111000
     27 C36         14.5620   -21.0030   -19.4330 cd         1 I6C      -0.022000
     28 C37         15.8650   -20.7080   -19.7250 cc         1 I6C      -0.157000
     29 C38         24.2910   -17.9910   -18.2610 ca         1 I6C      -0.121000
     30 C39         23.7980   -18.9780   -14.1520 c3         1 I6C       0.343300
     31 C43         26.2240   -15.1440   -18.4140 c6         1 I6C       0.163800
     32 C44         26.0830   -14.1010   -19.5090 c6         1 I6C       0.164300
     33 F40         23.0460   -20.0870   -13.9650 f          1 I6C      -0.112333
     34 F41         23.1540   -17.9730   -13.5000 f          1 I6C      -0.112333
     35 F42         24.9540   -19.1800   -13.4900 f          1 I6C      -0.112333
     36 N03         27.3320   -13.9450   -20.2500 n3         1 I6C      -0.721600
     37 N06         26.6440   -16.4280   -18.9690 n3         1 I6C      -0.731600
     38 N13         22.0000   -18.4720   -18.7250 ns         1 I6C      -0.143000
     39 N24         15.2900   -18.5710   -20.6750 nd         1 I6C      -0.456800
     40 N25         14.0220   -18.8810   -20.3810 na         1 I6C       0.240900
     41 N28         10.5110   -18.5320   -20.0900 ns         1 I6C      -0.386100
     42 N34         12.2650   -20.0330   -19.6120 nd         1 I6C      -0.313600
     43 O15         20.3830   -19.5790   -17.5620 o          1 I6C      -0.582100
     44 O30         10.5900   -16.4580   -21.0170 o          1 I6C      -0.594100
     45 H1          27.1150   -10.8060   -21.6050 hc         1 I6C       0.038700
     46 H2          26.1570   -11.3630   -20.2370 hc         1 I6C       0.038700
     47 H3          27.9180   -11.2750   -20.0970 hc         1 I6C       0.038700
     48 H4          26.3950   -13.1640   -21.9820 h1         1 I6C       0.028700
     49 H5          28.1480   -13.0040   -21.8980 h1         1 I6C       0.028700
     50 H6          28.7000   -15.1050   -21.3120 h1         1 I6C       0.037950
     51 H7          27.0140   -15.6020   -21.5400 h1         1 I6C       0.037950
     52 H8          28.1680   -17.2320   -20.1410 h1         1 I6C       0.042200
     53 H9          28.7170   -15.9690   -19.0260 h1         1 I6C       0.042200
     54 H10         27.2080   -18.3360   -18.4060 h1         1 I6C       0.044700
     55 H11         27.3780   -17.1540   -17.1110 h1         1 I6C       0.044700
     56 H12         26.0750   -18.1340   -15.3930 ha         1 I6C       0.131000
     57 H13         21.9450   -19.1000   -16.0780 ha         1 I6C       0.166000
     58 H14         21.3480   -18.3830   -21.2860 ha         1 I6C       0.111000
     59 H15         19.7550   -18.2620   -23.1110 ha         1 I6C       0.121000
     60 H16         16.3820   -19.5180   -23.1070 hc         1 I6C       0.054700
     61 H17         16.5390   -17.7710   -23.0990 hc         1 I6C       0.054700
     62 H18         17.6680   -18.7410   -24.0490 hc         1 I6C       0.054700
     63 H19         18.1900   -19.5150   -18.6210 ha         1 I6C       0.144000
     64 H20         12.9890   -17.1330   -21.0800 h4         1 I6C       0.268000
     65 H21          8.0080   -18.1660   -19.8560 hc         1 I6C       0.088700
     66 H22          8.1860   -16.0930   -22.1430 hc         1 I6C       0.083950
     67 H23          6.6700   -16.9310   -21.5520 hc         1 I6C       0.083950
     68 H24          8.5650   -15.1240   -19.8750 hc         1 I6C       0.083950
     69 H25          7.0550   -15.9490   -19.2500 hc         1 I6C       0.083950
     70 H26         14.2680   -21.9320   -18.9640 ha         1 I6C       0.150000
     71 H27         16.6570   -21.4060   -19.4980 ha         1 I6C       0.141000
     72 H28         24.4070   -17.7180   -19.3030 ha         1 I6C       0.131000
     73 H29         25.2640   -15.2710   -17.9120 h1         1 I6C       0.042200
     74 H30         26.9500   -14.7890   -17.6630 h1         1 I6C       0.042200
     75 H31         25.8090   -13.1510   -19.0530 h1         1 I6C       0.037950
     76 H32         25.2620   -14.3940   -20.1880 h1         1 I6C       0.037950
     77 H35         22.2150   -18.0480   -19.6130 hn         1 I6C       0.155000
     78 H36          9.9200   -19.2410   -19.6820 hn         1 I6C       0.337500
@<TRIPOS>BOND
     1     1     2 1   
     2     1    45 1   
     3     1    46 1   
     4     1    47 1   
     5     2    36 1   
     6     2    48 1   
     7     2    49 1   
     8     3     4 1   
     9     3    36 1   
    10     3    50 1   
    11     3    51 1   
    12     4    37 1   
    13     4    52 1   
    14     4    53 1   
    15     5     6 1   
    16     5    37 1   
    17     5    54 1   
    18     5    55 1   
    19     6     7 ar  
    20     6    29 ar  
    21     7     8 ar  
    22     7    56 1   
    23     8     9 ar  
    24     8    30 1   
    25     9    10 ar  
    26     9    57 1   
    27    10    29 ar  
    28    10    38 1   
    29    11    12 1   
    30    11    38 1   
    31    11    43 2   
    32    12    13 ar  
    33    12    18 ar  
    34    13    14 ar  
    35    13    58 1   
    36    14    15 ar  
    37    14    59 1   
    38    15    16 1   
    39    15    17 ar  
    40    16    60 1   
    41    16    61 1   
    42    16    62 1   
    43    17    18 ar  
    44    17    19 1   
    45    18    63 1   
    46    19    28 1   
    47    19    39 2   
    48    20    21 2   
    49    20    40 1   
    50    20    64 1   
    51    21    41 1   
    52    21    42 1   
    53    22    23 1   
    54    22    41 1   
    55    22    44 2   
    56    23    24 1   
    57    23    25 1   
    58    23    65 1   
    59    24    25 1   
    60    24    66 1   
    61    24    67 1   
    62    25    68 1   
    63    25    69 1   
    64    26    27 1   
    65    26    40 1   
    66    26    42 2   
    67    27    28 2   
    68    27    70 1   
    69    28    71 1   
    70    29    72 1   
    71    30    33 1   
    72    30    34 1   
    73    30    35 1   
    74    31    32 1   
    75    31    37 1   
    76    31    73 1   
    77    31    74 1   
    78    32    36 1   
    79    32    75 1   
    80    32    76 1   
    81    38    77 1   
    82    39    40 1   
    83    41    78 1   
@<TRIPOS>SUBSTRUCTURE
     1 I6C         1 TEMP              0 ****  ****    0 ROOT
