@<TRIPOS>MOLECULE
I6D
   20    22     1     0     0
SMALL
abcg2


@<TRIPOS>ATOM
      1 C4         -41.9300   -14.8160    14.7930 ca         1 I6D      -0.056000
      2 C5         -40.9900   -13.8170    14.9780 ca         1 I6D      -0.176000
      3 C6         -39.3530   -12.1130    15.6360 cc         1 I6D       0.438800
      4 C7         -38.8250   -11.1430    13.7940 cc         1 I6D       0.399400
      5 C8         -40.5290   -13.0830    13.8850 ca         1 I6D       0.002800
      6 C9         -40.9810   -13.3290    12.6020 ca         1 I6D      -0.099000
      7 N1         -38.4890   -11.1930    15.9380 nd         1 I6D      -0.320000
      8 N2         -38.1600   -10.5830    14.7630 nd         1 I6D      -0.348000
      9 C3         -42.3850   -15.0610    13.5070 ca         1 I6D      -0.111000
     10 N3         -39.6060   -12.1320    14.3010 na         1 I6D      -0.262800
     11 C2         -41.9220   -14.3340    12.4050 ca         1 I6D      -0.048300
     12 S1         -40.2630   -13.3100    16.5010 ss         1 I6D       0.031700
     13 H1         -42.3050   -15.3900    15.6290 ha         1 I6D       0.131000
     14 H2         -38.7790   -10.8800    12.7500 h5         1 I6D       0.071100
     15 H3         -40.6120   -12.7450    11.7680 ha         1 I6D       0.128000
     16 H4         -43.1250   -15.8370    13.3540 ha         1 I6D       0.121000
     17 H5         -41.7760   -15.4050    10.5530 hc         1 I6D       0.049033
     18 H6         -43.4260   -15.0490    11.0430 hc         1 I6D       0.049033
     19 H7         -42.4010   -13.7720    10.3820 hc         1 I6D       0.049033
     20 C1         -42.4120   -14.6520    11.0230 c3         1 I6D      -0.051800
@<TRIPOS>BOND
     1     1     2 ar  
     2     1     9 ar  
     3     1    13 1   
     4     2     5 ar  
     5     2    12 1   
     6     3     7 2   
     7     3    10 1   
     8     3    12 1   
     9     4     8 2   
    10     4    10 1   
    11     4    14 1   
    12     5     6 ar  
    13     5    10 1   
    14     6    11 ar  
    15     6    15 1   
    16     7     8 1   
    17     9    11 ar  
    18     9    16 1   
    19    11    20 1   
    20    17    20 1   
    21    18    20 1   
    22    19    20 1   
@<TRIPOS>SUBSTRUCTURE
     1 I6D         1 TEMP              0 ****  ****    0 ROOT
