@<TRIPOS>MOLECULE
I6D
   20    22     1     0     0
SMALL
No Charge or Current Charge


@<TRIPOS>ATOM
      1 C4         -41.9480   -14.7520    14.8230 ca         1 I6D      -0.056000
      2 C5         -40.8880   -13.8490    14.9880 ca         1 I6D      -0.176000
      3 C6         -39.1120   -12.3100    15.6040 cc         1 I6D       0.438800
      4 C7         -39.0090   -11.1360    13.7660 cc         1 I6D       0.399400
      5 C8         -40.3330   -13.2030    13.8880 ca         1 I6D       0.002800
      6 C9         -40.8050   -13.4290    12.5880 ca         1 I6D      -0.099000
      7 N1         -38.6830   -11.1120    15.9560 nd         1 I6D      -0.320000
      8 N2         -38.5410   -10.3930    14.7730 nd         1 I6D      -0.348000
      9 C3         -42.4350   -14.9940    13.5220 ca         1 I6D      -0.111000
     10 N3         -39.3030   -12.3750    14.2680 na         1 I6D      -0.262800
     11 C2         -41.8710   -14.3360    12.4030 ca         1 I6D      -0.048300
     12 S1         -40.1530   -13.3750    16.5620 ss         1 I6D       0.031700
     13 H1         -42.3890   -15.2550    15.6810 ha         1 I6D       0.131000
     14 H2         -39.1490   -10.8460    12.7320 h5         1 I6D       0.071100
     15 H3         -40.3540   -12.9230    11.7380 ha         1 I6D       0.128000
     16 H4         -43.2550   -15.6950    13.3820 ha         1 I6D       0.121000
     17 H5         -41.8810   -15.4570    10.5470 hc         1 I6D       0.049033
     18 H6         -43.4760   -14.8520    11.0280 hc         1 I6D       0.049033
     19 H7         -42.2790   -13.7410    10.3500 hc         1 I6D       0.049033
     20 C1         -42.4060   -14.6110    11.0060 c3         1 I6D      -0.051800
@<TRIPOS>BOND
     1     1     2 ar  
     2     1     9 ar  
     3     1    13 1   
     4     2     5 ar  
     5     2    12 1   
     6     3     7 2   
     7     3    10 1   
     8     3    12 1   
     9     4     8 2   
    10     4    10 1   
    11     4    14 1   
    12     5     6 ar  
    13     5    10 1   
    14     6    11 ar  
    15     6    15 1   
    16     7     8 1   
    17     9    11 ar  
    18     9    16 1   
    19    11    20 1   
    20    17    20 1   
    21    18    20 1   
    22    19    20 1   
@<TRIPOS>SUBSTRUCTURE
     1 I6D         1 TEMP              0 ****  ****    0 ROOT
