@<TRIPOS>MOLECULE
I6G
   27    28     1     0     0
SMALL
No Charge or Current Charge


@<TRIPOS>ATOM
      1 O1           0.1800     3.3220    -0.1360 oh         1 I6G      -0.527100
      2 C4           0.6810     2.0500    -0.0990 ca         1 I6G       0.139100
      3 C3           2.0660     1.8520    -0.0970 ca         1 I6G      -0.120000
      4 C2           2.5910     0.5530    -0.0590 ca         1 I6G      -0.170000
      5 C5          -0.2140     0.9570    -0.0620 ca         1 I6G       0.181000
      6 C10          0.3130    -0.3790    -0.0240 ca         1 I6G       0.243000
      7 C1           1.7250    -0.5650    -0.0220 ca         1 I6G       0.139100
      8 O            2.2270    -1.8590     0.0150 os         1 I6G      -0.309100
      9 C            3.6360    -2.1480     0.0190 c3         1 I6G       0.142900
     10 N1          -0.5280    -1.4560     0.0120 nb         1 I6G      -0.610000
     11 C8          -1.8630    -1.2060     0.0090 ca         1 I6G       0.316300
     12 C9          -2.7680    -2.4300     0.0490 c3         1 I6G      -0.144400
     13 C6          -2.3780     0.1230    -0.0300 ca         1 I6G       0.334300
     14 N           -1.5580     1.2050    -0.0660 nb         1 I6G      -0.672000
     15 C7          -3.8710     0.4210    -0.0340 c3         1 I6G      -0.146400
     16 H1          -0.8000     3.2130    -0.1290 ho         1 I6G       0.491000
     17 H3           2.7360     2.7100    -0.1250 ha         1 I6G       0.132000
     18 H2           3.6710     0.4330    -0.0590 ha         1 I6G       0.123000
     19 HC1          4.1170    -1.7590    -0.8870 h1         1 I6G       0.041033
     20 HC2          4.1230    -1.7040     0.8970 h1         1 I6G       0.041033
     21 HC3          3.8010    -3.2320     0.0520 h1         1 I6G       0.041033
     22 H91C        -3.4100    -2.4130     0.9380 hc         1 I6G       0.055700
     23 H92C        -3.4150    -2.4670    -0.8350 hc         1 I6G       0.055700
     24 H93C        -2.1930    -3.3640     0.0760 hc         1 I6G       0.055700
     25 H71C        -4.3510     0.0210     0.8670 hc         1 I6G       0.056033
     26 H72C        -4.0740     1.4980    -0.0660 hc         1 I6G       0.056033
     27 H73C        -4.3570    -0.0330    -0.9060 hc         1 I6G       0.056033
@<TRIPOS>BOND
     1     1     2 1   
     2     1    16 1   
     3     2     3 ar  
     4     2     5 ar  
     5     3     4 ar  
     6     3    17 1   
     7     4     7 ar  
     8     4    18 1   
     9     5     6 ar  
    10     5    14 ar  
    11     6     7 ar  
    12     6    10 ar  
    13     7     8 1   
    14     8     9 1   
    15     9    19 1   
    16     9    20 1   
    17     9    21 1   
    18    10    11 ar  
    19    11    12 1   
    20    11    13 ar  
    21    12    22 1   
    22    12    23 1   
    23    12    24 1   
    24    13    14 ar  
    25    13    15 1   
    26    15    25 1   
    27    15    26 1   
    28    15    27 1   
@<TRIPOS>SUBSTRUCTURE
     1 I6G         1 TEMP              0 ****  ****    0 ROOT
