@<TRIPOS>MOLECULE
I6G
   27    28     1     0     0
SMALL
bcc


@<TRIPOS>ATOM
      1 O1           0.1570     3.2930    -0.1240 oh         1 I6G      -0.488100
      2 C4           0.6770     2.0540    -0.0900 ca         1 I6G       0.073800
      3 C3           2.0280     1.8360    -0.0860 ca         1 I6G      -0.138000
      4 C2           2.5540     0.5260    -0.0530 ca         1 I6G      -0.188000
      5 C5          -0.1850     0.9290    -0.0580 ca         1 I6G       0.246300
      6 C10          0.3290    -0.3780    -0.0210 ca         1 I6G       0.308300
      7 C1           1.7360    -0.5790    -0.0220 ca         1 I6G       0.073800
      8 O            2.1470    -1.8590     0.0070 os         1 I6G      -0.285900
      9 C            3.5380    -2.1060     0.0070 c3         1 I6G       0.119700
     10 N1          -0.5140    -1.4320     0.0160 nb         1 I6G      -0.610000
     11 C8          -1.7990    -1.2080     0.0120 ca         1 I6G       0.316300
     12 C9          -2.7290    -2.3770     0.0580 c3         1 I6G      -0.144400
     13 C6          -2.3220     0.1290    -0.0350 ca         1 I6G       0.334300
     14 N           -1.5160     1.1510    -0.0670 nb         1 I6G      -0.672000
     15 C7          -3.7950     0.3730    -0.0480 c3         1 I6G      -0.146400
     16 H1          -0.8090     3.2110    -0.1200 ho         1 I6G       0.452000
     17 H3           2.7140     2.6730    -0.1080 ha         1 I6G       0.150000
     18 H2           3.6300     0.4230    -0.0540 ha         1 I6G       0.141000
     19 HC1          4.0220    -1.7150    -0.8920 h1         1 I6G       0.041033
     20 HC2          4.0300    -1.6780     0.8850 h1         1 I6G       0.041033
     21 HC3          3.6600    -3.1860     0.0290 h1         1 I6G       0.041033
     22 H91C        -3.3720    -2.3340     0.9390 hc         1 I6G       0.055700
     23 H92C        -3.3860    -2.3950    -0.8140 hc         1 I6G       0.055700
     24 H93C        -2.1670    -3.3070     0.0860 hc         1 I6G       0.055700
     25 H71C        -4.2690    -0.0100     0.8590 hc         1 I6G       0.056033
     26 H72C        -4.0000     1.4390    -0.1200 hc         1 I6G       0.056033
     27 H73C        -4.2720    -0.1310    -0.8900 hc         1 I6G       0.056033
@<TRIPOS>BOND
     1     1     2 1   
     2     1    16 1   
     3     2     3 ar  
     4     2     5 ar  
     5     3     4 ar  
     6     3    17 1   
     7     4     7 ar  
     8     4    18 1   
     9     5     6 ar  
    10     5    14 ar  
    11     6     7 ar  
    12     6    10 ar  
    13     7     8 1   
    14     8     9 1   
    15     9    19 1   
    16     9    20 1   
    17     9    21 1   
    18    10    11 ar  
    19    11    12 1   
    20    11    13 ar  
    21    12    22 1   
    22    12    23 1   
    23    12    24 1   
    24    13    14 ar  
    25    13    15 1   
    26    15    25 1   
    27    15    26 1   
    28    15    27 1   
@<TRIPOS>SUBSTRUCTURE
     1 I6G         1 TEMP              0 ****  ****    0 ROOT
