@<TRIPOS>MOLECULE
I6H
   71    72     1     0     0
SMALL
No Charge or Current Charge


@<TRIPOS>ATOM
      1 C30         90.9950   106.3590   108.9660 c3         1 I6H       0.143900
      2 O19         90.7300   104.9830   108.6390 os         1 I6H      -0.321100
      3 C6          91.7280   104.0210   108.5750 ca         1 I6H       0.117100
      4 C5          93.0890   104.3470   108.7780 ca         1 I6H      -0.164000
      5 C9          91.3580   102.6870   108.2990 ca         1 I6H       0.119100
      6 O23         90.0180   102.3930   108.1020 os         1 I6H      -0.318100
      7 C32         89.5530   101.0620   107.8160 c3         1 I6H       0.144900
      8 C13         92.3560   101.6960   108.2230 ca         1 I6H      -0.176000
      9 C11         93.7040   102.0280   108.4340 ca         1 I6H      -0.097000
     10 C2          94.1030   103.3540   108.7350 ca         1 I6H      -0.077300
     11 C1          95.6200   103.6730   108.9560 c3         1 I6H       0.084400
     12 C15         96.2860   102.6360   109.9630 c3         1 I6H      -0.049700
     13 C29         95.5020   102.3840   111.2830 c3         1 I6H      -0.092600
     14 C28         97.7840   102.9100   110.2780 c3         1 I6H      -0.092600
     15 C3          96.2390   103.4890   107.6200 c1         1 I6H       0.306900
     16 N4          96.7510   103.3520   106.5810 n1         1 I6H      -0.470000
     17 C22         95.8960   105.1760   109.3540 c3         1 I6H      -0.065400
     18 C26         95.4120   105.6550   110.7500 c3         1 I6H      -0.077400
     19 C25         95.2940   107.1940   110.8490 c3         1 I6H       0.167800
     20 N8          94.6440   107.6930   112.0880 n3         1 I6H      -0.720600
     21 C27         95.3990   107.3540   113.3240 c3         1 I6H       0.150100
     22 C16         94.3120   109.1390   111.9830 c3         1 I6H       0.169800
     23 C21         93.3860   109.6880   113.0920 c3         1 I6H      -0.028100
     24 C17         92.9330   111.1140   112.8010 ca         1 I6H      -0.080300
     25 C12         93.7780   112.1980   113.1030 ca         1 I6H      -0.169000
     26 C18         91.6760   111.3550   112.2200 ca         1 I6H      -0.105000
     27 C14         91.2580   112.6670   111.9440 ca         1 I6H      -0.169000
     28 C10         92.1010   113.7610   112.2470 ca         1 I6H       0.110100
     29 O24         91.7210   115.0680   111.9870 os         1 I6H      -0.321100
     30 C33         90.4520   115.4010   111.3970 c3         1 I6H       0.145900
     31 C7          93.3690   113.5240   112.8290 ca         1 I6H       0.112100
     32 O20         94.1800   114.6110   113.1160 os         1 I6H      -0.322100
     33 C31         95.4840   114.4690   113.7060 c3         1 I6H       0.146900
     34 H1          90.0590   106.9330   108.9790 h1         1 I6H       0.041700
     35 H2          91.4590   106.4440   109.9570 h1         1 I6H       0.041700
     36 H3          91.6610   106.8160   108.2230 h1         1 I6H       0.041700
     37 H4          93.3490   105.3790   108.9660 ha         1 I6H       0.123000
     38 H5          88.4620   101.0570   107.7010 h1         1 I6H       0.040367
     39 H6          89.9950   100.6850   106.8850 h1         1 I6H       0.040367
     40 H7          89.8110   100.3750   108.6330 h1         1 I6H       0.040367
     41 H8          92.1100   100.6620   108.0010 ha         1 I6H       0.119000
     42 H9          94.4400   101.2330   108.3530 ha         1 I6H       0.116000
     43 H10         96.2900   101.6620   109.4580 hc         1 I6H       0.055700
     44 H11         95.9040   101.5000   111.7930 hc         1 I6H       0.038867
     45 H12         95.5830   103.2200   111.9840 hc         1 I6H       0.038867
     46 H13         94.4380   102.1930   111.1010 hc         1 I6H       0.038867
     47 H14         98.2110   102.0750   110.8470 hc         1 I6H       0.038867
     48 H15         98.3760   103.0180   109.3610 hc         1 I6H       0.038867
     49 H16         97.9100   103.8170   110.8790 hc         1 I6H       0.038867
     50 H17         96.9730   105.3780   109.2970 hc         1 I6H       0.046700
     51 H18         95.4630   105.8270   108.5840 hc         1 I6H       0.046700
     52 H19         94.4410   105.2110   110.9960 hc         1 I6H       0.055700
     53 H20         96.1260   105.3120   111.5040 hc         1 I6H       0.055700
     54 H21         96.2960   107.6340   110.7450 h1         1 I6H       0.027700
     55 H22         94.7070   107.5310   109.9840 h1         1 I6H       0.027700
     56 H24         94.8540   107.6680   114.2230 h1         1 I6H       0.029700
     57 H25         95.5530   106.2710   113.4130 h1         1 I6H       0.029700
     58 H26         96.3820   107.8430   113.3270 h1         1 I6H       0.029700
     59 H27         95.2350   109.7360   111.9690 h1         1 I6H       0.032700
     60 H28         93.8050   109.3200   111.0250 h1         1 I6H       0.032700
     61 H29         92.5170   109.0260   113.1890 hc         1 I6H       0.053200
     62 H30         93.9040   109.6620   114.0570 hc         1 I6H       0.053200
     63 H31         94.7470   111.9920   113.5480 ha         1 I6H       0.116000
     64 H32         91.0180   110.5210   111.9800 ha         1 I6H       0.114000
     65 H33         90.2800   112.8140   111.4950 ha         1 I6H       0.118000
     66 H34         90.3610   116.4890   111.2830 h1         1 I6H       0.038700
     67 H35         90.3520   114.9450   110.4040 h1         1 I6H       0.038700
     68 H36         89.6250   115.0560   112.0310 h1         1 I6H       0.038700
     69 H37         95.9480   115.4530   113.8440 h1         1 I6H       0.038367
     70 H38         95.4180   113.9830   114.6880 h1         1 I6H       0.038367
     71 H39         96.1410   113.8720   113.0600 h1         1 I6H       0.038367
@<TRIPOS>BOND
     1     1     2 1   
     2     1    34 1   
     3     1    35 1   
     4     1    36 1   
     5     2     3 1   
     6     3     4 ar  
     7     3     5 ar  
     8     4    10 ar  
     9     4    37 1   
    10     5     6 1   
    11     5     8 ar  
    12     6     7 1   
    13     7    38 1   
    14     7    39 1   
    15     7    40 1   
    16     8     9 ar  
    17     8    41 1   
    18     9    10 ar  
    19     9    42 1   
    20    10    11 1   
    21    11    12 1   
    22    11    15 1   
    23    11    17 1   
    24    12    13 1   
    25    12    14 1   
    26    12    43 1   
    27    13    44 1   
    28    13    45 1   
    29    13    46 1   
    30    14    47 1   
    31    14    48 1   
    32    14    49 1   
    33    15    16 3   
    34    17    18 1   
    35    17    50 1   
    36    17    51 1   
    37    18    19 1   
    38    18    52 1   
    39    18    53 1   
    40    19    20 1   
    41    19    54 1   
    42    19    55 1   
    43    20    21 1   
    44    20    22 1   
    45    21    56 1   
    46    21    57 1   
    47    21    58 1   
    48    22    23 1   
    49    22    59 1   
    50    22    60 1   
    51    23    24 1   
    52    23    61 1   
    53    23    62 1   
    54    24    25 ar  
    55    24    26 ar  
    56    25    31 ar  
    57    25    63 1   
    58    26    27 ar  
    59    26    64 1   
    60    27    28 ar  
    61    27    65 1   
    62    28    29 1   
    63    28    31 ar  
    64    29    30 1   
    65    30    66 1   
    66    30    67 1   
    67    30    68 1   
    68    31    32 1   
    69    32    33 1   
    70    33    69 1   
    71    33    70 1   
    72    33    71 1   
@<TRIPOS>SUBSTRUCTURE
     1 I6H         1 TEMP              0 ****  ****    0 ROOT
