@<TRIPOS>MOLECULE
I6H
   71    72     1     0     0
SMALL
bcc


@<TRIPOS>ATOM
      1 C30         90.5690   104.9060   107.2090 c3         1 I6H       0.120700
      2 O19         90.5280   103.6530   107.8600 os         1 I6H      -0.297900
      3 C6          91.6660   103.1710   108.3890 ca         1 I6H       0.117100
      4 C5          92.8950   103.7990   108.3240 ca         1 I6H      -0.182000
      5 C9          91.5530   101.9290   109.0520 ca         1 I6H       0.119100
      6 O23         90.3240   101.3850   109.0720 os         1 I6H      -0.294900
      7 C32         90.1560   100.1460   109.7280 c3         1 I6H       0.121700
      8 C13         92.6830   101.3720   109.6190 ca         1 I6H      -0.194000
      9 C11         93.9180   102.0190   109.5420 ca         1 I6H      -0.115000
     10 C2          94.0400   103.2380   108.9060 ca         1 I6H      -0.077300
     11 C1          95.3720   103.9820   108.7400 c3         1 I6H       0.084400
     12 C15         96.5760   103.2970   109.4580 c3         1 I6H      -0.049700
     13 C29         96.5340   103.4300   110.9780 c3         1 I6H      -0.092600
     14 C28         97.9300   103.8010   108.9580 c3         1 I6H      -0.092600
     15 C3          95.6470   103.9180   107.2960 c1         1 I6H       0.217700
     16 N4          95.8380   103.8660   106.1620 n1         1 I6H      -0.380800
     17 C22         95.2450   105.4910   109.1070 c3         1 I6H      -0.065400
     18 C26         94.3990   105.8280   110.3340 c3         1 I6H      -0.077400
     19 C25         94.6850   107.2620   110.7670 c3         1 I6H       0.167800
     20 N8          93.7510   107.7730   111.7540 n3         1 I6H      -0.720600
     21 C27         93.9020   107.1040   113.0300 c3         1 I6H       0.150100
     22 C16         93.8650   109.2160   111.8820 c3         1 I6H       0.169800
     23 C21         92.6620   109.8620   112.5720 c3         1 I6H      -0.028100
     24 C17         92.7650   111.3610   112.5430 ca         1 I6H      -0.080300
     25 C12         93.4830   112.0370   113.5370 ca         1 I6H      -0.187000
     26 C18         92.2040   112.1000   111.5180 ca         1 I6H      -0.123000
     27 C14         92.3470   113.4870   111.4710 ca         1 I6H      -0.187000
     28 C10         93.0580   114.1550   112.4530 ca         1 I6H       0.110100
     29 O24         93.2530   115.4890   112.4990 os         1 I6H      -0.297900
     30 C33         92.7060   116.2740   111.4630 c3         1 I6H       0.122700
     31 C7          93.6350   113.4130   113.5060 ca         1 I6H       0.112100
     32 O20         94.3070   114.1350   114.4230 os         1 I6H      -0.298900
     33 C31         94.8950   113.4550   115.5100 c3         1 I6H       0.123700
     34 H1          89.5540   105.1140   106.8780 h1         1 I6H       0.041700
     35 H2          90.8910   105.7070   107.8810 h1         1 I6H       0.041700
     36 H3          91.2270   104.8940   106.3350 h1         1 I6H       0.041700
     37 H4          92.9760   104.7480   107.8080 ha         1 I6H       0.141000
     38 H5          89.1040    99.8880   109.6370 h1         1 I6H       0.040367
     39 H6          90.7540    99.3540   109.2660 h1         1 I6H       0.040367
     40 H7          90.4140   100.2060   110.7890 h1         1 I6H       0.040367
     41 H8          92.6340   100.4210   110.1310 ha         1 I6H       0.137000
     42 H9          94.7680   101.5270   109.9930 ha         1 I6H       0.134000
     43 H10         96.5270   102.2340   109.2030 hc         1 I6H       0.055700
     44 H11         97.3090   102.7990   111.4120 hc         1 I6H       0.038867
     45 H12         96.7390   104.4550   111.2930 hc         1 I6H       0.038867
     46 H13         95.5830   103.1270   111.4150 hc         1 I6H       0.038867
     47 H14         98.7250   103.2730   109.4850 hc         1 I6H       0.038867
     48 H15         98.0790   103.6260   107.8930 hc         1 I6H       0.038867
     49 H16         98.0680   104.8660   109.1500 hc         1 I6H       0.038867
     50 H17         96.2560   105.8860   109.2380 hc         1 I6H       0.046700
     51 H18         94.8340   106.0400   108.2570 hc         1 I6H       0.046700
     52 H19         93.3380   105.7380   110.0970 hc         1 I6H       0.055700
     53 H20         94.5950   105.1310   111.1480 hc         1 I6H       0.055700
     54 H21         95.7300   107.3310   111.1190 h1         1 I6H       0.027700
     55 H22         94.6180   107.9030   109.8820 h1         1 I6H       0.027700
     56 H24         93.1800   107.4830   113.7520 h1         1 I6H       0.029700
     57 H25         93.7170   106.0350   112.9310 h1         1 I6H       0.029700
     58 H26         94.9080   107.2340   113.4590 h1         1 I6H       0.029700
     59 H27         94.7900   109.5120   112.4070 h1         1 I6H       0.032700
     60 H28         93.9370   109.6350   110.8750 h1         1 I6H       0.032700
     61 H29         91.7540   109.5410   112.0570 hc         1 I6H       0.053200
     62 H30         92.5800   109.5200   113.6060 hc         1 I6H       0.053200
     63 H31         93.9200   111.4580   114.3410 ha         1 I6H       0.134000
     64 H32         91.6420   111.6020   110.7370 ha         1 I6H       0.132000
     65 H33         91.8910   114.0300   110.6550 ha         1 I6H       0.136000
     66 H34         92.9790   117.3050   111.6770 h1         1 I6H       0.038700
     67 H35         93.1080   116.0000   110.4840 h1         1 I6H       0.038700
     68 H36         91.6150   116.2010   111.4250 h1         1 I6H       0.038700
     69 H37         95.3730   114.2130   116.1270 h1         1 I6H       0.038367
     70 H38         94.1520   112.9270   116.1150 h1         1 I6H       0.038367
     71 H39         95.6550   112.7380   115.1850 h1         1 I6H       0.038367
@<TRIPOS>BOND
     1     1     2 1   
     2     1    34 1   
     3     1    35 1   
     4     1    36 1   
     5     2     3 1   
     6     3     4 ar  
     7     3     5 ar  
     8     4    10 ar  
     9     4    37 1   
    10     5     6 1   
    11     5     8 ar  
    12     6     7 1   
    13     7    38 1   
    14     7    39 1   
    15     7    40 1   
    16     8     9 ar  
    17     8    41 1   
    18     9    10 ar  
    19     9    42 1   
    20    10    11 1   
    21    11    12 1   
    22    11    15 1   
    23    11    17 1   
    24    12    13 1   
    25    12    14 1   
    26    12    43 1   
    27    13    44 1   
    28    13    45 1   
    29    13    46 1   
    30    14    47 1   
    31    14    48 1   
    32    14    49 1   
    33    15    16 3   
    34    17    18 1   
    35    17    50 1   
    36    17    51 1   
    37    18    19 1   
    38    18    52 1   
    39    18    53 1   
    40    19    20 1   
    41    19    54 1   
    42    19    55 1   
    43    20    21 1   
    44    20    22 1   
    45    21    56 1   
    46    21    57 1   
    47    21    58 1   
    48    22    23 1   
    49    22    59 1   
    50    22    60 1   
    51    23    24 1   
    52    23    61 1   
    53    23    62 1   
    54    24    25 ar  
    55    24    26 ar  
    56    25    31 ar  
    57    25    63 1   
    58    26    27 ar  
    59    26    64 1   
    60    27    28 ar  
    61    27    65 1   
    62    28    29 1   
    63    28    31 ar  
    64    29    30 1   
    65    30    66 1   
    66    30    67 1   
    67    30    68 1   
    68    31    32 1   
    69    32    33 1   
    70    33    69 1   
    71    33    70 1   
    72    33    71 1   
@<TRIPOS>SUBSTRUCTURE
     1 I6H         1 TEMP              0 ****  ****    0 ROOT
