@<TRIPOS>MOLECULE
I6I
   86    88     1     0     0
SMALL
abcg2


@<TRIPOS>ATOM
      1 C02        -39.5750    69.2450     8.0290 cc         1 I6I       0.893100
      2 C04        -39.3800    67.8630     6.1390 c          1 I6I       0.766100
      3 C05        -36.7250    66.9150     8.4440 cc         1 I6I      -0.229000
      4 C06        -36.4910    66.0500     7.3960 cd         1 I6I      -0.162000
      5 C08        -38.2380    67.2630     6.7910 cd         1 I6I      -0.288600
      6 C09        -37.8350    67.6800     8.0440 cc         1 I6I       0.239000
      7 C12        -36.1650    72.1120     1.6090 ca         1 I6I      -0.158600
      8 C14        -36.8210    71.0470     0.9940 ca         1 I6I      -0.050000
      9 C15        -35.0110    70.5120     3.0190 ca         1 I6I      -0.180000
     10 C16        -36.5700    69.7400     1.3730 ca         1 I6I      -0.139000
     11 C17        -36.3570    73.5030     1.0900 c          1 I6I       0.613700
     12 N19        -37.6390    73.8940     1.0090 ns         1 I6I      -0.423900
     13 C20        -38.0820    74.9410     0.1170 c3         1 I6I      -0.057300
     14 C21        -39.3030    75.6580     0.6850 c3         1 I6I      -0.059400
     15 C26        -38.3480    74.3970    -1.3210 c          1 I6I       0.713000
     16 C30        -36.3010    66.0950     4.1860 c3         1 I6I      -0.088400
     17 C31        -36.4930    67.5570     3.8070 c3         1 I6I      -0.082400
     18 C32        -35.4260    68.0350     2.8210 c3         1 I6I      -0.020100
     19 C33        -35.6610    69.4540     2.3890 ca         1 I6I      -0.074300
     20 C34        -40.8100    79.5620     2.9240 c3         1 I6I      -0.042300
     21 C13        -35.2610    71.8080     2.6140 ca         1 I6I       0.205000
     22 C22        -39.0290    76.3250     2.0320 c3         1 I6I      -0.160400
     23 C23        -40.1870    77.2110     2.4430 c          1 I6I       0.585100
     24 C35        -41.0550    79.6640     4.4370 c3         1 I6I      -0.051400
     25 C36        -42.0820    80.7210     4.8100 c3         1 I6I      -0.155400
     26 C37        -42.4030    80.7560     6.2900 c          1 I6I       0.602100
     27 C40        -40.2290    80.8840     2.3590 c          1 I6I       0.713000
     28 C43        -43.9620    82.6730     5.8680 c3         1 I6I      -0.041300
     29 C44        -44.3480    83.8840     6.7190 c3         1 I6I      -0.044400
     30 C45        -45.0850    84.9720     5.9550 c3         1 I6I      -0.192400
     31 C46        -45.3390    86.2770     6.7400 c          1 I6I       0.712000
     32 C49        -45.2160    81.9940     5.2590 c          1 I6I       0.714000
     33 F24        -34.6210    72.8060     3.2410 f          1 I6I      -0.170000
     34 N01        -38.5220    68.6880     8.6700 na         1 I6I      -0.909200
     35 N03        -39.9880    68.8670     6.8450 nd         1 I6I      -0.777100
     36 N07        -37.3940    66.2480     6.4100 na         1 I6I       0.073000
     37 N11        -40.1980    70.2690     8.6460 nv         1 I6I      -1.034200
     38 N25        -39.8740    78.4980     2.6320 ns         1 I6I      -0.463900
     39 N39        -43.1970    81.7610     6.7040 ns         1 I6I      -0.461900
     40 O10        -39.8080    67.5200     5.0370 o          1 I6I      -0.576100
     41 O18        -35.4040    74.1920     0.7560 o          1 I6I      -0.620100
     42 O27        -38.0960    73.1980    -1.5360 o          1 I6I      -0.737000
     43 O28        -38.7810    75.2380    -2.1300 o          1 I6I      -0.737000
     44 O38        -41.9480    79.9340     7.0790 o          1 I6I      -0.720100
     45 O47        -46.1780    87.0560     6.2400 o          1 I6I      -0.780000
     46 O48        -44.6850    86.4680     7.7850 o          1 I6I      -0.780000
     47 H1         -36.1720    66.9750     9.3670 ha         1 I6I       0.130000
     48 H2         -35.7290    65.2930     7.2960 h4         1 I6I       0.137000
     49 H3         -37.5100    71.2560     0.1840 ha         1 I6I       0.171000
     50 H4         -34.3030    70.3270     3.8190 ha         1 I6I       0.107000
     51 H5         -37.0790    68.9290     0.8650 ha         1 I6I       0.104000
     52 H6         -38.3380    73.2090     1.2560 hn         1 I6I       0.295500
     53 H7         -37.2710    75.6700     0.0410 h1         1 I6I       0.070700
     54 H8         -39.6060    76.4120    -0.0420 hc         1 I6I       0.061700
     55 H9         -40.1400    74.9600     0.7800 hc         1 I6I       0.061700
     56 H12        -36.3240    65.4770     3.2830 hc         1 I6I       0.036700
     57 H13        -35.3100    65.9510     4.6290 hc         1 I6I       0.036700
     58 H14        -36.4600    68.1860     4.7010 hc         1 I6I       0.066700
     59 H15        -37.4840    67.6950     3.3690 hc         1 I6I       0.066700
     60 H16        -35.4320    67.3840     1.9420 hc         1 I6I       0.030200
     61 H17        -34.4380    67.9410     3.2770 hc         1 I6I       0.030200
     62 H18        -41.7600    79.3450     2.4280 h1         1 I6I       0.066700
     63 H19        -38.1020    76.9000     1.9750 hc         1 I6I       0.039200
     64 H20        -38.8830    75.5670     2.8050 hc         1 I6I       0.039200
     65 H21        -41.3860    78.6860     4.7950 hc         1 I6I       0.027200
     66 H22        -40.1020    79.8720     4.9310 hc         1 I6I       0.027200
     67 H23        -41.7390    81.7110     4.5030 hc         1 I6I       0.089200
     68 H24        -43.0090    80.5570     4.2520 hc         1 I6I       0.089200
     69 H25        -43.3190    83.0260     5.0580 h1         1 I6I       0.059700
     70 H26        -43.4370    84.3010     7.1540 hc         1 I6I       0.019200
     71 H27        -44.9610    83.5410     7.5600 hc         1 I6I       0.019200
     72 H28        -46.0450    84.6020     5.5860 hc         1 I6I       0.036200
     73 H29        -44.5150    85.2340     5.0550 hc         1 I6I       0.036200
     74 H30        -38.2380    69.0080     9.5840 hn         1 I6I       0.498000
     75 H31        -41.0830    70.5560     8.2630 hn         1 I6I       0.499000
     76 H32        -40.0700    70.4290     9.6320 hn         1 I6I       0.499000
     77 H33        -38.9230    78.8100     2.4980 hn         1 I6I       0.326500
     78 H34        -43.4640    81.7170     7.6780 hn         1 I6I       0.280500
     79 C29        -37.3630    65.5520     5.1340 c3         1 I6I       0.068600
     80 O41        -38.9840    80.9780     2.3630 o          1 I6I      -0.735000
     81 O24        -41.3260    76.7660     2.5610 o          1 I6I      -0.665100
     82 O50        -45.8920    81.2950     6.0370 o          1 I6I      -0.743000
     83 H10        -37.1730    64.4970     5.3350 h1         1 I6I       0.067200
     84 H11        -38.3510    65.6260     4.6880 h1         1 I6I       0.067200
     85 O42        -41.0510    81.7360     1.9790 o          1 I6I      -0.735000
     86 O51        -45.4450    82.2290     4.0560 o          1 I6I      -0.743000
@<TRIPOS>BOND
     1     1    34 1   
     2     1    35 2   
     3     1    37 1   
     4     2     5 1   
     5     2    35 1   
     6     2    40 2   
     7     3     4 2   
     8     3     6 1   
     9     3    47 1   
    10     4    36 1   
    11     4    48 1   
    12     5     6 2   
    13     5    36 1   
    14     6    34 1   
    15     7     8 ar  
    16     7    11 1   
    17     7    21 ar  
    18     8    10 ar  
    19     8    49 1   
    20     9    19 ar  
    21     9    21 ar  
    22     9    50 1   
    23    10    19 ar  
    24    10    51 1   
    25    11    12 1   
    26    11    41 2   
    27    12    13 1   
    28    12    52 1   
    29    13    14 1   
    30    13    15 1   
    31    13    53 1   
    32    14    22 1   
    33    14    54 1   
    34    14    55 1   
    35    15    42 1   
    36    15    43 1   
    37    16    17 1   
    38    16    56 1   
    39    16    57 1   
    40    16    79 1   
    41    17    18 1   
    42    17    58 1   
    43    17    59 1   
    44    18    19 1   
    45    18    60 1   
    46    18    61 1   
    47    20    24 1   
    48    20    27 1   
    49    20    38 1   
    50    20    62 1   
    51    21    33 1   
    52    22    23 1   
    53    22    63 1   
    54    22    64 1   
    55    23    38 1   
    56    23    81 2   
    57    24    25 1   
    58    24    65 1   
    59    24    66 1   
    60    25    26 1   
    61    25    67 1   
    62    25    68 1   
    63    26    39 1   
    64    26    44 2   
    65    27    80 1   
    66    27    85 1   
    67    28    29 1   
    68    28    32 1   
    69    28    39 1   
    70    28    69 1   
    71    29    30 1   
    72    29    70 1   
    73    29    71 1   
    74    30    31 1   
    75    30    72 1   
    76    30    73 1   
    77    31    45 1   
    78    31    46 1   
    79    32    82 1   
    80    32    86 1   
    81    34    74 1   
    82    36    79 1   
    83    37    75 1   
    84    37    76 1   
    85    38    77 1   
    86    39    78 1   
    87    79    83 1   
    88    79    84 1   
@<TRIPOS>SUBSTRUCTURE
     1 I6I         1 TEMP              0 ****  ****    0 ROOT
