@<TRIPOS>MOLECULE
I6I
   86    88     1     0     0
SMALL
No Charge or Current Charge


@<TRIPOS>ATOM
      1 C02        -40.0290    70.5400     8.3610 cc         1 I6I       0.893100
      2 C04        -40.1910    69.1820     6.4690 c          1 I6I       0.766100
      3 C05        -37.6870    67.7300     8.6800 cc         1 I6I      -0.229000
      4 C06        -37.6010    66.7920     7.6830 cd         1 I6I      -0.162000
      5 C08        -39.1760    68.3550     7.0910 cd         1 I6I      -0.288600
      6 C09        -38.6480    68.6550     8.2860 cc         1 I6I       0.239000
      7 C12        -36.4760    72.6400     1.5110 ca         1 I6I      -0.158600
      8 C14        -37.1440    71.6490     0.7460 ca         1 I6I      -0.050000
      9 C15        -35.8570    70.8900     3.1170 ca         1 I6I      -0.180000
     10 C16        -37.1630    70.3070     1.1660 ca         1 I6I      -0.139000
     11 C17        -36.4410    74.0860     1.0570 c          1 I6I       0.613700
     12 N19        -37.3570    74.4360     0.0820 ns         1 I6I      -0.423900
     13 C20        -37.4940    75.7770    -0.5400 c3         1 I6I      -0.057300
     14 C21        -38.5940    76.6320     0.1420 c3         1 I6I      -0.059400
     15 C26        -37.7600    75.6310    -2.0680 c          1 I6I       0.713000
     16 C30        -37.6520    66.7340     4.3570 c3         1 I6I      -0.088400
     17 C31        -37.6140    68.2050     3.8790 c3         1 I6I      -0.082400
     18 C32        -36.5390    68.4640     2.8030 c3         1 I6I      -0.020100
     19 C33        -36.5190    69.9180     2.3510 ca         1 I6I      -0.074300
     20 C34        -39.7270    80.3060     2.9900 c3         1 I6I      -0.042300
     21 C13        -35.8320    72.2330     2.7050 ca         1 I6I       0.205000
     22 C22        -38.3340    76.9440     1.6370 c3         1 I6I      -0.160400
     23 C23        -39.3840    77.9120     2.1980 c          1 I6I       0.585100
     24 C35        -39.8450    80.1890     4.5330 c3         1 I6I      -0.051400
     25 C36        -40.7530    81.2640     5.1780 c3         1 I6I      -0.155400
     26 C37        -40.8540    81.0690     6.7030 c          1 I6I       0.602100
     27 C40        -39.1310    81.6760     2.5370 c          1 I6I       0.713000
     28 C43        -43.1660    79.9500     6.5340 c3         1 I6I      -0.041300
     29 C44        -44.2150    81.0440     6.1940 c3         1 I6I      -0.044400
     30 C45        -45.3660    80.5500     5.2830 c3         1 I6I      -0.192400
     31 C46        -46.3320    81.7050     4.9660 c          1 I6I       0.712000
     32 C49        -43.7800    78.7840     7.3750 c          1 I6I       0.714000
     33 F24        -35.1940    73.1200     3.5010 f          1 I6I      -0.170000
     34 N01        -39.0800    69.7830     8.9490 na         1 I6I      -0.909200
     35 N03        -40.5580    70.2820     7.2180 nd         1 I6I      -0.777100
     36 N07        -38.5240    67.1750     6.6880 na         1 I6I       0.073000
     37 N11        -40.4200    71.5760     9.0350 nv         1 I6I      -1.034200
     38 N25        -38.9290    79.1910     2.4250 ns         1 I6I      -0.463900
     39 N39        -42.0000    80.5270     7.2490 ns         1 I6I      -0.461900
     40 O10        -40.7130    68.9680     5.3880 o          1 I6I      -0.576100
     41 O18        -35.6320    74.9010     1.4820 o          1 I6I      -0.620100
     42 O27        -38.6190    74.8410    -2.4380 o          1 I6I      -0.737000
     43 O28        -37.0350    76.2410    -2.8410 o          1 I6I      -0.737000
     44 O38        -39.9520    81.4210     7.4490 o          1 I6I      -0.720100
     45 O47        -47.2670    81.9040     5.7260 o          1 I6I      -0.780000
     46 O48        -46.1020    82.4020     3.9900 o          1 I6I      -0.780000
     47 H1         -37.1210    67.7630     9.6050 ha         1 I6I       0.130000
     48 H2         -36.9750    65.9110     7.5950 h4         1 I6I       0.137000
     49 H3         -37.6400    71.8930    -0.1910 ha         1 I6I       0.171000
     50 H4         -35.3590    70.6080     4.0410 ha         1 I6I       0.107000
     51 H5         -37.6790    69.5660     0.5600 ha         1 I6I       0.104000
     52 H6         -37.9950    73.7140    -0.2260 hn         1 I6I       0.295500
     53 H7         -36.5370    76.3060    -0.4410 h1         1 I6I       0.070700
     54 H8         -38.6800    77.5810    -0.4040 hc         1 I6I       0.061700
     55 H9         -39.5630    76.1260     0.0400 hc         1 I6I       0.061700
     56 H12        -37.8350    66.0840     3.4930 hc         1 I6I       0.036700
     57 H13        -36.6690    66.4570     4.7590 hc         1 I6I       0.036700
     58 H14        -37.4230    68.8650     4.7340 hc         1 I6I       0.066700
     59 H15        -38.5960    68.4820     3.4760 hc         1 I6I       0.066700
     60 H16        -36.7200    67.8020     1.9470 hc         1 I6I       0.030200
     61 H17        -35.5560    68.1850     3.2030 hc         1 I6I       0.030200
     62 H18        -40.7370    80.2430     2.5630 h1         1 I6I       0.066700
     63 H19        -37.3330    77.3820     1.7290 hc         1 I6I       0.039200
     64 H20        -38.3820    76.0070     2.2040 hc         1 I6I       0.039200
     65 H21        -40.2440    79.2000     4.7880 hc         1 I6I       0.027200
     66 H22        -38.8430    80.2480     4.9760 hc         1 I6I       0.027200
     67 H23        -40.3120    82.2500     4.9950 hc         1 I6I       0.089200
     68 H24        -41.7330    81.2130     4.6990 hc         1 I6I       0.089200
     69 H25        -42.8090    79.5020     5.5980 h1         1 I6I       0.059700
     70 H26        -43.7160    81.8860     5.6990 hc         1 I6I       0.019200
     71 H27        -44.6360    81.4410     7.1260 hc         1 I6I       0.019200
     72 H28        -45.8890    79.7670     5.8450 hc         1 I6I       0.036200
     73 H29        -44.8880    80.1920     4.3630 hc         1 I6I       0.036200
     74 H30        -38.6860    70.0710     9.8310 hn         1 I6I       0.498000
     75 H31        -41.2470    71.9880     8.6300 hn         1 I6I       0.499000
     76 H32        -40.4700    71.4360    10.0320 hn         1 I6I       0.499000
     77 H33        -37.9600    79.3770     2.1880 hn         1 I6I       0.326500
     78 H34        -42.0010    80.4540     8.2600 hn         1 I6I       0.280500
     79 C29        -38.7330    66.4450     5.4240 c3         1 I6I       0.068600
     80 O41        -37.9240    81.8520     2.6470 o          1 I6I      -0.735000
     81 O24        -40.5310    77.5670     2.4470 o          1 I6I      -0.665100
     82 O50        -44.0680    78.9940     8.5460 o          1 I6I      -0.743000
     83 H10        -38.7250    65.3720     5.6520 h1         1 I6I       0.067200
     84 H11        -39.7240    66.6820     5.0220 h1         1 I6I       0.067200
     85 O42        -39.8730    82.4740     1.9820 o          1 I6I      -0.735000
     86 O51        -43.8410    77.6740     6.8650 o          1 I6I      -0.743000
@<TRIPOS>BOND
     1     1    34 1   
     2     1    35 2   
     3     1    37 1   
     4     2     5 1   
     5     2    35 1   
     6     2    40 2   
     7     3     4 2   
     8     3     6 1   
     9     3    47 1   
    10     4    36 1   
    11     4    48 1   
    12     5     6 2   
    13     5    36 1   
    14     6    34 1   
    15     7     8 ar  
    16     7    11 1   
    17     7    21 ar  
    18     8    10 ar  
    19     8    49 1   
    20     9    19 ar  
    21     9    21 ar  
    22     9    50 1   
    23    10    19 ar  
    24    10    51 1   
    25    11    12 1   
    26    11    41 2   
    27    12    13 1   
    28    12    52 1   
    29    13    14 1   
    30    13    15 1   
    31    13    53 1   
    32    14    22 1   
    33    14    54 1   
    34    14    55 1   
    35    15    42 1   
    36    15    43 1   
    37    16    17 1   
    38    16    56 1   
    39    16    57 1   
    40    16    79 1   
    41    17    18 1   
    42    17    58 1   
    43    17    59 1   
    44    18    19 1   
    45    18    60 1   
    46    18    61 1   
    47    20    24 1   
    48    20    27 1   
    49    20    38 1   
    50    20    62 1   
    51    21    33 1   
    52    22    23 1   
    53    22    63 1   
    54    22    64 1   
    55    23    38 1   
    56    23    81 2   
    57    24    25 1   
    58    24    65 1   
    59    24    66 1   
    60    25    26 1   
    61    25    67 1   
    62    25    68 1   
    63    26    39 1   
    64    26    44 2   
    65    27    80 1   
    66    27    85 1   
    67    28    29 1   
    68    28    32 1   
    69    28    39 1   
    70    28    69 1   
    71    29    30 1   
    72    29    70 1   
    73    29    71 1   
    74    30    31 1   
    75    30    72 1   
    76    30    73 1   
    77    31    45 1   
    78    31    46 1   
    79    32    82 1   
    80    32    86 1   
    81    34    74 1   
    82    36    79 1   
    83    37    75 1   
    84    37    76 1   
    85    38    77 1   
    86    39    78 1   
    87    79    83 1   
    88    79    84 1   
@<TRIPOS>SUBSTRUCTURE
     1 I6I         1 TEMP              0 ****  ****    0 ROOT
