@<TRIPOS>MOLECULE
I6J
   52    53     1     0     0
SMALL
No Charge or Current Charge


@<TRIPOS>ATOM
      1 C10        -27.9490    11.1910   -24.7050 ca         1 I6J      -0.114900
      2 C13        -29.2110     7.7150   -24.2440 c3         1 I6J      -0.074400
      3 C17        -33.3360     8.6330   -25.4960 ca         1 I6J      -0.208000
      4 C20        -33.6730     8.6720   -28.2840 ca         1 I6J      -0.054000
      5 C21        -32.4170     8.3320   -27.7440 ca         1 I6J      -0.067300
      6 C22        -31.2590     8.0020   -28.6860 c3         1 I6J       0.000900
      7 C24        -29.7570     6.1530   -29.6650 c3         1 I6J       0.180300
      8 C01        -30.6950    11.5060   -26.7300 c3         1 I6J      -0.085100
      9 C02        -30.2590    12.1140   -25.3820 c3         1 I6J      -0.135700
     10 C03        -28.7420    12.2230   -25.2570 ca         1 I6J       0.184300
     11 C05        -26.8470    13.4460   -25.6270 ca         1 I6J       0.394900
     12 C08        -26.5540    11.4230   -24.6520 ca         1 I6J       0.391900
     13 C12        -28.2880     8.7740   -24.8830 c3         1 I6J       0.152600
     14 C14        -30.7140     8.0120   -24.4220 c3         1 I6J       0.172600
     15 C16        -32.2470     8.3130   -26.3390 ca         1 I6J       0.150100
     16 C18        -34.5820     8.9700   -26.0480 ca         1 I6J      -0.091000
     17 C19        -34.7500     8.9890   -27.4400 ca         1 I6J      -0.150000
     18 C23        -31.0230     6.4740   -28.8420 c3         1 I6J      -0.258700
     19 C27        -32.2390     5.7850   -29.4750 c          1 I6J       0.729000
     20 F25        -29.5740     4.8140   -29.7330 f          1 I6J      -0.155000
     21 F26        -28.6600     6.6680   -29.0630 f          1 I6J      -0.155000
     22 N04        -28.1800    13.3570   -25.7250 nb         1 I6J      -0.279000
     23 N06        -26.2880    14.5850   -26.0920 nv         1 I6J      -1.052900
     24 N07        -25.9990    12.5500   -25.1110 nb         1 I6J      -0.331000
     25 N09        -25.6730    10.5520   -24.0880 nv         1 I6J      -1.065900
     26 O11        -28.5360    10.0320   -24.2270 os         1 I6J      -0.357100
     27 O15        -31.0030     7.9910   -25.8280 os         1 I6J      -0.342100
     28 O28        -32.5650     6.1040   -30.6090 o          1 I6J      -0.721000
     29 O29        -32.8250     4.9370   -28.8190 o          1 I6J      -0.721000
     30 H131       -28.9860     6.7350   -24.6810 hc         1 I6J       0.053200
     31 H132       -28.9850     7.6420   -23.1740 hc         1 I6J       0.053200
     32 H171       -33.2340     8.6260   -24.4150 ha         1 I6J       0.098000
     33 H201       -33.8160     8.6900   -29.3630 ha         1 I6J       0.126000
     34 H221       -31.4330     8.4450   -29.6740 hc         1 I6J       0.035700
     35 H222       -30.3430     8.4760   -28.3130 hc         1 I6J       0.035700
     36 H241       -29.8360     6.5580   -30.6810 h2         1 I6J       0.062700
     37 H013       -31.7850    11.3960   -26.7700 hc         1 I6J       0.042033
     38 H011       -30.3830    12.1470   -27.5640 hc         1 I6J       0.042033
     39 H012       -30.2430    10.5180   -26.8700 hc         1 I6J       0.042033
     40 H021       -30.7210    13.1020   -25.2720 hc         1 I6J       0.065700
     41 H022       -30.6640    11.5010   -24.5690 hc         1 I6J       0.065700
     42 H121       -28.5000     8.8490   -25.9570 h1         1 I6J       0.044200
     43 H122       -27.2430     8.4640   -24.7640 h1         1 I6J       0.044200
     44 H142       -31.3020     7.2480   -23.8960 h1         1 I6J       0.031700
     45 H141       -30.9490     8.9930   -23.9880 h1         1 I6J       0.031700
     46 H181       -35.4180     9.2160   -25.3960 ha         1 I6J       0.090000
     47 H191       -35.7160     9.2500   -27.8670 ha         1 I6J       0.101000
     48 H231       -30.8820     6.0520   -27.8400 hc         1 I6J       0.068700
     49 H062       -26.8950    15.3780   -26.2870 hn         1 I6J       0.477500
     50 H061       -25.3230    14.7910   -25.8450 hn         1 I6J       0.477500
     51 H091       -24.7410    10.8960   -23.8720 hn         1 I6J       0.486500
     52 H092       -26.0470     9.8400   -23.4690 hn         1 I6J       0.486500
@<TRIPOS>BOND
     1     1    10 ar  
     2     1    12 ar  
     3     1    26 1   
     4     2    13 1   
     5     2    14 1   
     6     2    30 1   
     7     2    31 1   
     8     3    15 ar  
     9     3    16 ar  
    10     3    32 1   
    11     4     5 ar  
    12     4    17 ar  
    13     4    33 1   
    14     5     6 1   
    15     5    15 ar  
    16     6    18 1   
    17     6    34 1   
    18     6    35 1   
    19     7    18 1   
    20     7    20 1   
    21     7    21 1   
    22     7    36 1   
    23     8     9 1   
    24     8    37 1   
    25     8    38 1   
    26     8    39 1   
    27     9    10 1   
    28     9    40 1   
    29     9    41 1   
    30    10    22 ar  
    31    11    22 ar  
    32    11    23 1   
    33    11    24 ar  
    34    12    24 ar  
    35    12    25 1   
    36    13    26 1   
    37    13    42 1   
    38    13    43 1   
    39    14    27 1   
    40    14    44 1   
    41    14    45 1   
    42    15    27 1   
    43    16    17 ar  
    44    16    46 1   
    45    17    47 1   
    46    18    19 1   
    47    18    48 1   
    48    19    28 1   
    49    19    29 1   
    50    23    49 1   
    51    23    50 1   
    52    25    51 1   
    53    25    52 1   
@<TRIPOS>SUBSTRUCTURE
     1 I6J         1 TEMP              0 ****  ****    0 ROOT
