@<TRIPOS>MOLECULE
I6J
   52    53     1     0     0
SMALL
abcg2


@<TRIPOS>ATOM
      1 C10        -28.0930    11.2240   -24.8060 ca         1 I6J      -0.114900
      2 C13        -29.1300     7.7510   -24.4160 c3         1 I6J      -0.074400
      3 C17        -33.3730     8.2480   -25.0400 ca         1 I6J      -0.208000
      4 C20        -34.0450     8.5110   -27.7100 ca         1 I6J      -0.054000
      5 C21        -32.7140     8.3120   -27.3760 ca         1 I6J      -0.067300
      6 C22        -31.6500     8.2290   -28.4340 c3         1 I6J       0.000900
      7 C24        -30.1400     6.7780   -29.7850 c3         1 I6J       0.180300
      8 C01        -29.2900    11.3310   -28.1340 c3         1 I6J      -0.085100
      9 C02        -29.6820    11.7080   -26.7070 c3         1 I6J      -0.135700
     10 C03        -28.4810    12.0190   -25.8620 ca         1 I6J       0.184300
     11 C05        -26.7200    13.4030   -25.4680 ca         1 I6J       0.394900
     12 C08        -26.9440    11.6200   -24.0860 ca         1 I6J       0.391900
     13 C12        -28.3990     8.9060   -25.0680 c3         1 I6J       0.152600
     14 C14        -30.6400     7.8850   -24.4070 c3         1 I6J       0.172600
     15 C16        -32.3850     8.1790   -26.0170 ca         1 I6J       0.150100
     16 C18        -34.6990     8.4480   -25.4090 ca         1 I6J      -0.091000
     17 C19        -35.0430     8.5810   -26.7430 ca         1 I6J      -0.150000
     18 C23        -31.1810     6.7890   -28.7000 c3         1 I6J      -0.258700
     19 C27        -32.3870     5.9130   -29.1270 c          1 I6J       0.729000
     20 F25        -29.6930     5.4990   -29.9950 f          1 I6J      -0.155000
     21 F26        -29.0290     7.4990   -29.4240 f          1 I6J      -0.155000
     22 N04        -27.7930    13.1190   -26.1960 nb         1 I6J      -0.279000
     23 N06        -25.9890    14.4880   -25.8380 nv         1 I6J      -1.052900
     24 N07        -26.2660    12.7090   -24.4220 nb         1 I6J      -0.331000
     25 N09        -26.4970    10.8860   -23.0480 nv         1 I6J      -1.065900
     26 O11        -28.7760    10.1110   -24.4070 os         1 I6J      -0.357100
     27 O15        -31.0780     7.9870   -25.7490 os         1 I6J      -0.342100
     28 O28        -32.8620     6.1670   -30.2520 o          1 I6J      -0.721000
     29 O29        -32.7850     5.0640   -28.3110 o          1 I6J      -0.721000
     30 H131       -28.8430     6.8320   -24.9320 hc         1 I6J       0.053200
     31 H132       -28.7990     7.6420   -23.3800 hc         1 I6J       0.053200
     32 H171       -33.1300     8.1450   -23.9910 ha         1 I6J       0.098000
     33 H201       -34.3070     8.6140   -28.7570 ha         1 I6J       0.126000
     34 H221       -32.0410     8.6530   -29.3620 hc         1 I6J       0.035700
     35 H222       -30.7980     8.8480   -28.1430 hc         1 I6J       0.035700
     36 H241       -30.4970     7.1730   -30.7350 h2         1 I6J       0.062700
     37 H013       -30.1790    11.1620   -28.7420 hc         1 I6J       0.042033
     38 H011       -28.7070    12.1230   -28.6030 hc         1 I6J       0.042033
     39 H012       -28.6950    10.4160   -28.1540 hc         1 I6J       0.042033
     40 H021       -30.3150    12.5980   -26.7320 hc         1 I6J       0.065700
     41 H022       -30.2740    10.9100   -26.2600 hc         1 I6J       0.065700
     42 H121       -28.6390     8.9720   -26.1350 h1         1 I6J       0.044200
     43 H122       -27.3180     8.7490   -24.9870 h1         1 I6J       0.044200
     44 H142       -31.0830     7.0080   -23.9230 h1         1 I6J       0.031700
     45 H141       -30.9490     8.7650   -23.8340 h1         1 I6J       0.031700
     46 H181       -35.4590     8.5000   -24.6400 ha         1 I6J       0.090000
     47 H191       -36.0730     8.7390   -27.0340 ha         1 I6J       0.101000
     48 H231       -30.7270     6.3850   -27.7910 hc         1 I6J       0.068700
     49 H062       -26.4380    15.1600   -26.4360 hn         1 I6J       0.477500
     50 H061       -25.3540    14.8710   -25.1590 hn         1 I6J       0.477500
     51 H091       -25.7930    11.2890   -22.4530 hn         1 I6J       0.486500
     52 H092       -27.1070    10.2100   -22.6220 hn         1 I6J       0.486500
@<TRIPOS>BOND
     1     1    10 ar  
     2     1    12 ar  
     3     1    26 1   
     4     2    13 1   
     5     2    14 1   
     6     2    30 1   
     7     2    31 1   
     8     3    15 ar  
     9     3    16 ar  
    10     3    32 1   
    11     4     5 ar  
    12     4    17 ar  
    13     4    33 1   
    14     5     6 1   
    15     5    15 ar  
    16     6    18 1   
    17     6    34 1   
    18     6    35 1   
    19     7    18 1   
    20     7    20 1   
    21     7    21 1   
    22     7    36 1   
    23     8     9 1   
    24     8    37 1   
    25     8    38 1   
    26     8    39 1   
    27     9    10 1   
    28     9    40 1   
    29     9    41 1   
    30    10    22 ar  
    31    11    22 ar  
    32    11    23 1   
    33    11    24 ar  
    34    12    24 ar  
    35    12    25 1   
    36    13    26 1   
    37    13    42 1   
    38    13    43 1   
    39    14    27 1   
    40    14    44 1   
    41    14    45 1   
    42    15    27 1   
    43    16    17 ar  
    44    16    46 1   
    45    17    47 1   
    46    18    19 1   
    47    18    48 1   
    48    19    28 1   
    49    19    29 1   
    50    23    49 1   
    51    23    50 1   
    52    25    51 1   
    53    25    52 1   
@<TRIPOS>SUBSTRUCTURE
     1 I6J         1 TEMP              0 ****  ****    0 ROOT
