@<TRIPOS>MOLECULE
I6L
   60    63     1     0     0
SMALL
No Charge or Current Charge


@<TRIPOS>ATOM
      1 C24         49.9920     4.7150   114.7610 c3         1 I6L      -0.076400
      2 C27         53.1060     5.9330   118.9230 c3         1 I6L      -0.041800
      3 C29         58.3060     5.7960   116.7290 c3         1 I6L      -0.088600
      4 C30         59.8100     7.4860   117.8150 c3         1 I6L      -0.088600
      5 C20         57.8460     6.5380   119.1350 c6         1 I6L      -0.175400
      6 C16         55.9620     7.8030   117.4030 cc         1 I6L      -0.084300
      7 C22         49.1130     6.1040   116.8080 c3         1 I6L      -0.087400
      8 C21         56.3650     6.1150   119.1800 c          1 I6L       0.618700
      9 C18         57.4190     8.1530   117.2250 c6         1 I6L      -0.017100
     10 C19         58.3340     6.9960   117.7280 c6         1 I6L      -0.031000
     11 C13         53.6950     7.7080   117.0980 cc         1 I6L      -0.272600
     12 C8          49.2160     8.6360   116.9920 cc         1 I6L       0.400800
     13 C10         49.9200     7.3880   116.4870 c3         1 I6L       0.099400
     14 N7          49.4230     9.1940   118.2540 na         1 I6L      -0.311600
     15 C5          47.9320    10.3660   117.1670 ca         1 I6L       0.071400
     16 C3          46.7940    12.3360   117.9840 ca         1 I6L      -0.137000
     17 C4          47.0040    11.3950   116.9500 ca         1 I6L      -0.047000
     18 C1          48.4360    11.1890   119.3970 ca         1 I6L      -0.118000
     19 C14         54.0340     6.8170   118.1110 cd         1 I6L      -0.022300
     20 C15         55.4520     6.8820   118.2770 cd         1 I6L      -0.269600
     21 C2          47.5080    12.2340   119.2030 ca         1 I6L      -0.094000
     22 C23         49.7300     4.7780   116.2870 c3         1 I6L      -0.069400
     23 C25         48.7300     4.8880   113.8910 c3         1 I6L      -0.093100
     24 C6          48.6120    10.2810   118.3470 ca         1 I6L      -0.078200
     25 N11         51.3060     7.2650   116.9740 ns         1 I6L      -0.506900
     26 N17         54.8880     8.3150   116.6950 na         1 I6L      -0.055000
     27 N9          48.2940     9.3390   116.2990 nd         1 I6L      -0.565100
     28 O26         52.2110     8.8530   115.6430 o          1 I6L      -0.606100
     29 H1          50.4430     3.7430   114.5290 hc         1 I6L       0.042200
     30 H2          50.7350     5.4710   114.4790 hc         1 I6L       0.042200
     31 H3          52.7260     5.1000   118.3200 hc         1 I6L       0.052033
     32 H4          53.5920     5.5020   119.8010 hc         1 I6L       0.052033
     33 H5          52.2550     6.5020   119.3140 hc         1 I6L       0.052033
     34 H6          58.9350     4.9700   117.0800 hc         1 I6L       0.039867
     35 H7          57.2930     5.4000   116.5920 hc         1 I6L       0.039867
     36 H8          58.6740     6.0920   115.7390 hc         1 I6L       0.039867
     37 H9          59.9130     8.3260   118.5120 hc         1 I6L       0.039867
     38 H10         60.4780     6.6890   118.1620 hc         1 I6L       0.039867
     39 H11         60.1780     7.8240   116.8380 hc         1 I6L       0.039867
     40 H12         58.4720     5.7520   119.5760 hc         1 I6L       0.068700
     41 H13         57.9140     7.4170   119.7900 hc         1 I6L       0.068700
     42 H14         48.1000     6.2120   116.4010 hc         1 I6L       0.055200
     43 H15         48.9930     6.0260   117.8960 hc         1 I6L       0.055200
     44 H16         57.6430     8.3820   116.1730 hc         1 I6L       0.059700
     45 H17         57.6410     9.0720   117.7860 hc         1 I6L       0.059700
     46 H18         49.9620     7.4860   115.3940 h1         1 I6L       0.108700
     47 H19         50.0650     8.8480   118.9540 hn         1 I6L       0.354000
     48 H20         46.0800    13.1440   117.8420 ha         1 I6L       0.113000
     49 H21         46.4610    11.4650   116.0110 ha         1 I6L       0.128000
     50 H22         48.9920    11.0960   120.3270 ha         1 I6L       0.115000
     51 H23         47.3390    12.9630   119.9930 ha         1 I6L       0.111000
     52 H24         49.0610     3.9530   116.5620 hc         1 I6L       0.038200
     53 H25         50.6740     4.5860   116.8120 hc         1 I6L       0.038200
     54 H26         48.9770     4.7480   112.8320 hc         1 I6L       0.035700
     55 H27         47.9660     4.1500   114.1640 hc         1 I6L       0.035700
     56 H28         48.3040     5.8910   114.0080 hc         1 I6L       0.035700
     57 H29         51.5200     6.5520   117.6550 hn         1 I6L       0.323500
     58 H30         54.9590     9.0200   115.9670 hn         1 I6L       0.372000
     59 C12         52.3620     8.0040   116.5080 c          1 I6L       0.634700
     60 O28         56.0080     5.1910   119.8990 o          1 I6L      -0.543100
@<TRIPOS>BOND
     1     1    22 1   
     2     1    23 1   
     3     1    29 1   
     4     1    30 1   
     5     2    19 1   
     6     2    31 1   
     7     2    32 1   
     8     2    33 1   
     9     3    10 1   
    10     3    34 1   
    11     3    35 1   
    12     3    36 1   
    13     4    10 1   
    14     4    37 1   
    15     4    38 1   
    16     4    39 1   
    17     5     8 1   
    18     5    10 1   
    19     5    40 1   
    20     5    41 1   
    21     6     9 1   
    22     6    20 2   
    23     6    26 1   
    24     7    13 1   
    25     7    22 1   
    26     7    42 1   
    27     7    43 1   
    28     8    20 1   
    29     8    60 2   
    30     9    10 1   
    31     9    44 1   
    32     9    45 1   
    33    11    19 2   
    34    11    26 1   
    35    11    59 1   
    36    12    13 1   
    37    12    14 1   
    38    12    27 2   
    39    13    25 1   
    40    13    46 1   
    41    14    24 1   
    42    14    47 1   
    43    15    17 ar  
    44    15    24 ar  
    45    15    27 1   
    46    16    17 ar  
    47    16    21 ar  
    48    16    48 1   
    49    17    49 1   
    50    18    21 ar  
    51    18    24 ar  
    52    18    50 1   
    53    19    20 1   
    54    21    51 1   
    55    22    52 1   
    56    22    53 1   
    57    23    54 1   
    58    23    55 1   
    59    23    56 1   
    60    25    57 1   
    61    25    59 1   
    62    26    58 1   
    63    28    59 2   
@<TRIPOS>SUBSTRUCTURE
     1 I6L         1 TEMP              0 ****  ****    0 ROOT
