@<TRIPOS>MOLECULE
I6L
   60    63     1     0     0
SMALL
abcg2


@<TRIPOS>ATOM
      1 C24         49.5350     4.5440   114.9350 c3         1 I6L      -0.076400
      2 C27         53.2940     5.1110   118.4850 c3         1 I6L      -0.041800
      3 C29         58.4470     6.4660   116.6680 c3         1 I6L      -0.088600
      4 C30         59.4810     8.1690   118.1560 c3         1 I6L      -0.088600
      5 C20         57.7860     6.5950   119.0910 c6         1 I6L      -0.175400
      6 C16         55.7610     7.7360   117.5250 cc         1 I6L      -0.084300
      7 C22         48.9390     6.1160   116.8880 c3         1 I6L      -0.087400
      8 C21         56.4480     5.8850   119.0020 c          1 I6L       0.618700
      9 C18         57.0830     8.4070   117.5090 c6         1 I6L      -0.017100
     10 C19         58.1960     7.4030   117.8510 c6         1 I6L      -0.031000
     11 C13         53.6080     7.2960   117.1530 cc         1 I6L      -0.272600
     12 C8          49.4180     8.5580   116.8870 cc         1 I6L       0.400800
     13 C10         49.9150     7.2120   116.4490 c3         1 I6L       0.099400
     14 N7          49.6850     9.0630   118.1190 na         1 I6L      -0.311600
     15 C5          48.3820    10.4160   116.9830 ca         1 I6L       0.071400
     16 C3          47.5250    12.5030   117.7450 ca         1 I6L      -0.137000
     17 C4          47.6150    11.5550   116.7410 ca         1 I6L      -0.047000
     18 C1          48.9540    11.2120   119.2300 ca         1 I6L      -0.118000
     19 C14         54.0650     6.2830   117.9710 cd         1 I6L      -0.022300
     20 C15         55.4410     6.5720   118.2150 cd         1 I6L      -0.269600
     21 C2          48.1850    12.3340   118.9710 ca         1 I6L      -0.094000
     22 C23         49.3300     4.7090   116.4380 c3         1 I6L      -0.069400
     23 C25         48.3120     4.9060   114.1030 c3         1 I6L      -0.093100
     24 C6          49.0350    10.2650   118.2170 ca         1 I6L      -0.078200
     25 N11         51.2350     6.9380   116.9680 ns         1 I6L      -0.506900
     26 N17         54.6620     8.1480   116.8960 na         1 I6L      -0.055000
     27 N9          48.6450     9.3310   116.1770 nd         1 I6L      -0.565100
     28 O26         52.2340     8.5020   115.6890 o          1 I6L      -0.606100
     29 H1          49.8070     3.5030   114.7420 hc         1 I6L       0.042200
     30 H2          50.3940     5.1350   114.6040 hc         1 I6L       0.042200
     31 H3          52.6840     4.6530   117.7060 hc         1 I6L       0.052033
     32 H4          53.9610     4.3460   118.8700 hc         1 I6L       0.052033
     33 H5          52.6280     5.3920   119.3050 hc         1 I6L       0.052033
     34 H6          59.2330     5.7470   116.9090 hc         1 I6L       0.039867
     35 H7          57.5590     5.8990   116.3820 hc         1 I6L       0.039867
     36 H8          58.7740     7.0320   115.7940 hc         1 I6L       0.039867
     37 H9          59.3490     8.8430   119.0050 hc         1 I6L       0.039867
     38 H10         60.2960     7.4830   118.3930 hc         1 I6L       0.039867
     39 H11         59.7900     8.7680   117.2970 hc         1 I6L       0.039867
     40 H12         58.5570     5.8600   119.3320 hc         1 I6L       0.068700
     41 H13         57.7210     7.2710   119.9540 hc         1 I6L       0.068700
     42 H14         47.9550     6.3760   116.4950 hc         1 I6L       0.055200
     43 H15         48.8450     6.1350   117.9790 hc         1 I6L       0.055200
     44 H16         57.2730     8.8730   116.5380 hc         1 I6L       0.059700
     45 H17         57.0810     9.2180   118.2480 hc         1 I6L       0.059700
     46 H18         49.9550     7.2370   115.3580 h1         1 I6L       0.108700
     47 H19         50.2630     8.6360   118.8260 hn         1 I6L       0.354000
     48 H20         46.9340    13.3950   117.5840 ha         1 I6L       0.113000
     49 H21         47.1050    11.6900   115.7950 ha         1 I6L       0.128000
     50 H22         49.4630    11.0830   120.1760 ha         1 I6L       0.115000
     51 H23         48.0890    13.0980   119.7320 ha         1 I6L       0.111000
     52 H24         48.5400     4.0280   116.7670 hc         1 I6L       0.038200
     53 H25         50.2340     4.3870   116.9610 hc         1 I6L       0.038200
     54 H26         48.4760     4.6870   113.0470 hc         1 I6L       0.035700
     55 H27         47.4350     4.3400   114.4250 hc         1 I6L       0.035700
     56 H28         48.0640     5.9660   114.1780 hc         1 I6L       0.035700
     57 H29         51.3090     6.3300   117.7680 hn         1 I6L       0.323500
     58 H30         54.5920     8.9660   116.3080 hn         1 I6L       0.372000
     59 C12         52.3160     7.6260   116.5440 c          1 I6L       0.634700
     60 O28         56.2520     4.8410   119.6010 o          1 I6L      -0.543100
@<TRIPOS>BOND
     1     1    22 1   
     2     1    23 1   
     3     1    29 1   
     4     1    30 1   
     5     2    19 1   
     6     2    31 1   
     7     2    32 1   
     8     2    33 1   
     9     3    10 1   
    10     3    34 1   
    11     3    35 1   
    12     3    36 1   
    13     4    10 1   
    14     4    37 1   
    15     4    38 1   
    16     4    39 1   
    17     5     8 1   
    18     5    10 1   
    19     5    40 1   
    20     5    41 1   
    21     6     9 1   
    22     6    20 2   
    23     6    26 1   
    24     7    13 1   
    25     7    22 1   
    26     7    42 1   
    27     7    43 1   
    28     8    20 1   
    29     8    60 2   
    30     9    10 1   
    31     9    44 1   
    32     9    45 1   
    33    11    19 2   
    34    11    26 1   
    35    11    59 1   
    36    12    13 1   
    37    12    14 1   
    38    12    27 2   
    39    13    25 1   
    40    13    46 1   
    41    14    24 1   
    42    14    47 1   
    43    15    17 ar  
    44    15    24 ar  
    45    15    27 1   
    46    16    17 ar  
    47    16    21 ar  
    48    16    48 1   
    49    17    49 1   
    50    18    21 ar  
    51    18    24 ar  
    52    18    50 1   
    53    19    20 1   
    54    21    51 1   
    55    22    52 1   
    56    22    53 1   
    57    23    54 1   
    58    23    55 1   
    59    23    56 1   
    60    25    57 1   
    61    25    59 1   
    62    26    58 1   
    63    28    59 2   
@<TRIPOS>SUBSTRUCTURE
     1 I6L         1 TEMP              0 ****  ****    0 ROOT
