@<TRIPOS>MOLECULE
I6M
   66    69     1     0     0
SMALL
bcc


@<TRIPOS>ATOM
      1 C10        -24.6750     6.1180   -74.6050 ca         1 I6M       0.171900
      2 C15        -26.9770    -1.5560   -75.9960 c5         1 I6M       0.164000
      3 C17        -29.0300    -2.2850   -75.0540 ca         1 I6M      -0.084300
      4 C22        -25.4320    -3.5020   -78.2550 c2         1 I6M       0.787100
      5 C26        -29.3270    -3.2860   -72.8880 ca         1 I6M      -0.070300
      6 C02        -25.7570     0.5720   -76.1540 c          1 I6M       0.584100
      7 C03        -25.7410     1.9980   -75.5760 c          1 I6M       0.587100
      8 C05        -24.4350     4.0730   -75.8110 ca         1 I6M       0.098600
      9 C06        -23.4050     4.6600   -76.5500 ca         1 I6M      -0.188000
     10 C07        -23.0220     5.9660   -76.3110 ca         1 I6M      -0.068000
     11 C08        -23.6580     6.7110   -75.3290 ca         1 I6M      -0.051600
     12 C12        -25.0780     4.8170   -74.8240 ca         1 I6M      -0.195000
     13 C16        -27.6590    -2.2450   -74.8470 ca         1 I6M      -0.124300
     14 C18        -29.3780    -1.6880   -76.3890 c5         1 I6M      -0.033100
     15 C19        -28.0250    -1.6650   -77.1290 c5         1 I6M      -0.114700
     16 C25        -29.8670    -2.7990   -74.0760 ca         1 I6M      -0.125000
     17 C27        -30.2330    -3.8780   -71.8350 c3         1 I6M       0.200100
     18 C29        -30.3300    -4.5600   -69.5150 c5         1 I6M       0.147800
     19 C30        -31.7570    -4.0830   -69.1790 c5         1 I6M      -0.115400
     20 C31        -31.7100    -2.5720   -69.4720 c5         1 I6M      -0.101400
     21 C32        -30.2530    -2.3290   -69.9220 c5         1 I6M       0.153500
     22 C33        -30.0570    -1.1210   -70.8170 c3         1 I6M       0.143400
     23 C35        -27.9440    -3.2580   -72.7030 ca         1 I6M      -0.114000
     24 C36        -27.1030    -2.7340   -73.6750 ca         1 I6M      -0.095000
     25 F11        -25.2920     6.8220   -73.6540 f          1 I6M      -0.123900
     26 N04        -24.7590     2.7490   -76.1020 ns         1 I6M      -0.444100
     27 N14        -26.7170    -0.1750   -75.6230 ns         1 I6M      -0.536900
     28 N23        -24.3520    -3.0470   -78.7780 n2         1 I6M      -0.883100
     29 N24        -25.5080    -4.4330   -77.2420 nv         1 I6M      -0.958800
     30 N28        -29.7890    -3.6050   -70.4750 n3         1 I6M      -0.694600
     31 O01        -24.9470     0.2220   -76.9980 o          1 I6M      -0.588100
     32 O13        -26.5510     2.3480   -74.7390 o          1 I6M      -0.581100
     33 CL09       -23.2050     8.3390   -75.0010 cl         1 I6M      -0.075400
     34 H1         -26.0230    -2.0140   -76.2550 h1         1 I6M       0.106700
     35 H2         -28.6950    -3.0140   -78.6480 h1         1 I6M       0.053700
     36 H3         -27.9570    -3.8200   -77.2950 h1         1 I6M       0.053700
     37 H4         -22.8980     4.0920   -77.3200 ha         1 I6M       0.144000
     38 H5         -22.2240     6.4080   -76.8910 ha         1 I6M       0.152000
     39 H6         -25.8770     4.4120   -74.2250 ha         1 I6M       0.185000
     40 H7         -29.7810    -0.6790   -76.2680 hc         1 I6M       0.058200
     41 H8         -30.1360    -2.2620   -76.9280 hc         1 I6M       0.058200
     42 H9         -27.9470    -0.8110   -77.8050 hc         1 I6M       0.069700
     43 H10        -30.9420    -2.8140   -74.2240 ha         1 I6M       0.132000
     44 H11        -31.2670    -3.5600   -72.0320 h1         1 I6M       0.043200
     45 H12        -30.2300    -4.9640   -71.9650 h1         1 I6M       0.043200
     46 H13        -30.2890    -5.5760   -69.9080 h1         1 I6M       0.056200
     47 H14        -29.7090    -4.5350   -68.6150 h1         1 I6M       0.056200
     48 H15        -32.4930    -4.5820   -69.8100 hc         1 I6M       0.046700
     49 H16        -32.0210    -4.3030   -68.1440 hc         1 I6M       0.046700
     50 H17        -31.9680    -1.9680   -68.6030 hc         1 I6M       0.053200
     51 H18        -32.4100    -2.3020   -70.2670 hc         1 I6M       0.053200
     52 H19        -29.6470    -2.1570   -69.0230 h1         1 I6M       0.075700
     53 H20        -29.0120    -1.0700   -71.1470 h1         1 I6M       0.028700
     54 H21        -30.6780    -1.2050   -71.7190 h1         1 I6M       0.028700
     55 H22        -27.5290    -3.6360   -71.7780 ha         1 I6M       0.152000
     56 H23        -26.0320    -2.7060   -73.5140 ha         1 I6M       0.141000
     57 H24        -24.1910     2.2870   -76.8010 hn         1 I6M       0.355500
     58 H25        -27.3190     0.2590   -74.9380 hn         1 I6M       0.344500
     59 H26        -26.5220    -2.3040   -79.4000 hn         1 I6M       0.433800
     60 H27        -23.5440    -3.5500   -78.4320 hn         1 I6M       0.379400
     61 H28        -26.2960    -5.0620   -77.2580 hn         1 I6M       0.397300
     62 H29        -24.6480    -4.9220   -77.0520 hn         1 I6M       0.397300
     63 H31        -30.3370     0.7870   -70.6240 ho         1 I6M       0.407000
     64 C20        -27.8600    -2.9500   -77.9460 c3         1 I6M       0.230800
     65 N21        -26.6380    -3.0330   -78.7110 nu         1 I6M      -0.853200
     66 O34        -30.4170     0.0140   -70.0590 oh         1 I6M      -0.601800
@<TRIPOS>BOND
     1     1    11 ar  
     2     1    12 ar  
     3     1    25 1   
     4     2    13 1   
     5     2    15 1   
     6     2    27 1   
     7     2    34 1   
     8     3    13 ar  
     9     3    14 1   
    10     3    16 ar  
    11     4    28 2   
    12     4    29 1   
    13     4    65 1   
    14     5    16 ar  
    15     5    17 1   
    16     5    23 ar  
    17     6     7 1   
    18     6    27 1   
    19     6    31 2   
    20     7    26 1   
    21     7    32 2   
    22     8     9 ar  
    23     8    12 ar  
    24     8    26 1   
    25     9    10 ar  
    26     9    37 1   
    27    10    11 ar  
    28    10    38 1   
    29    11    33 1   
    30    12    39 1   
    31    13    24 ar  
    32    14    15 1   
    33    14    40 1   
    34    14    41 1   
    35    15    42 1   
    36    15    64 1   
    37    16    43 1   
    38    17    30 1   
    39    17    44 1   
    40    17    45 1   
    41    18    19 1   
    42    18    30 1   
    43    18    46 1   
    44    18    47 1   
    45    19    20 1   
    46    19    48 1   
    47    19    49 1   
    48    20    21 1   
    49    20    50 1   
    50    20    51 1   
    51    21    22 1   
    52    21    30 1   
    53    21    52 1   
    54    22    53 1   
    55    22    54 1   
    56    22    66 1   
    57    23    24 ar  
    58    23    55 1   
    59    24    56 1   
    60    26    57 1   
    61    27    58 1   
    62    28    60 1   
    63    29    61 1   
    64    29    62 1   
    65    35    64 1   
    66    36    64 1   
    67    59    65 1   
    68    63    66 1   
    69    64    65 1   
@<TRIPOS>SUBSTRUCTURE
     1 I6M         1 TEMP              0 ****  ****    0 ROOT
