@<TRIPOS>MOLECULE
I6M
   66    69     1     0     0
SMALL
No Charge or Current Charge


@<TRIPOS>ATOM
      1 C10        -24.5530     6.4280   -75.4260 ca         1 I6M       0.207000
      2 C15        -26.9610    -1.6490   -75.6550 c5         1 I6M       0.164000
      3 C17        -29.0100    -2.4750   -74.7340 ca         1 I6M      -0.084300
      4 C22        -25.5770    -2.5470   -78.5480 c2         1 I6M       0.787100
      5 C26        -29.2720    -3.5930   -72.5950 ca         1 I6M      -0.070300
      6 C02        -25.7000     0.4660   -75.7750 c          1 I6M       0.517100
      7 C03        -25.7610     2.0500   -75.5590 c          1 I6M       0.520100
      8 C05        -24.1700     4.0520   -75.8500 ca         1 I6M       0.006000
      9 C06        -22.8560     4.3600   -76.2550 ca         1 I6M      -0.170000
     10 C07        -22.3910     5.6880   -76.2480 ca         1 I6M      -0.050000
     11 C08        -23.2390     6.7260   -75.8330 ca         1 I6M       0.040000
     12 C12        -25.0180     5.1030   -75.4330 ca         1 I6M      -0.177000
     13 C16        -27.6550    -2.3490   -74.5180 ca         1 I6M      -0.124300
     14 C18        -29.4290    -1.8720   -76.0480 c5         1 I6M      -0.033100
     15 C19        -28.0390    -1.8190   -76.8090 c5         1 I6M      -0.114700
     16 C25        -29.8400    -3.0940   -73.7880 ca         1 I6M      -0.107000
     17 C27        -30.1520    -4.2700   -71.5470 c3         1 I6M       0.200100
     18 C29        -30.5670    -4.5930   -69.1010 c5         1 I6M       0.147800
     19 C30        -32.0700    -4.1890   -69.1590 c5         1 I6M      -0.115400
     20 C31        -32.0460    -2.7230   -69.7020 c5         1 I6M      -0.101400
     21 C32        -30.5250    -2.4060   -69.8310 c5         1 I6M       0.153500
     22 C33        -30.1800    -1.2160   -70.7780 c3         1 I6M       0.166600
     23 C35        -27.8790    -3.4650   -72.3830 ca         1 I6M      -0.096000
     24 C36        -27.0630    -2.8380   -73.3440 ca         1 I6M      -0.077000
     25 F11        -25.3830     7.4180   -75.0240 f          1 I6M      -0.159000
     26 N04        -24.5670     2.6870   -75.8840 ns         1 I6M      -0.118000
     27 N14        -26.8790    -0.1980   -75.4610 ns         1 I6M      -0.469900
     28 N23        -25.1210    -1.7290   -79.3570 n2         1 I6M      -0.883100
     29 N24        -24.9990    -3.6830   -78.3130 nv         1 I6M      -1.069200
     30 N28        -29.9590    -3.7520   -70.1600 n3         1 I6M      -0.694600
     31 O01        -24.6900    -0.1100   -76.1780 o          1 I6M      -0.588100
     32 O13        -26.7730     2.6210   -75.1450 o          1 I6M      -0.581100
     33 Cl09       -22.6440     8.3870   -75.8290 cl         1 I6M      -0.167000
     34 H1         -26.0010    -2.1280   -75.8960 h1         1 I6M       0.106700
     35 H2         -28.7530    -3.4070   -78.1010 h1         1 I6M       0.053700
     36 H3         -27.4820    -3.9200   -76.9890 h1         1 I6M       0.053700
     37 H4         -22.1860     3.5660   -76.5800 ha         1 I6M       0.126000
     38 H5         -21.3740     5.9110   -76.5640 ha         1 I6M       0.134000
     39 H6         -26.0370     4.9200   -75.1120 ha         1 I6M       0.167000
     40 H7         -29.8470    -0.8690   -75.9050 hc         1 I6M       0.058200
     41 H8         -30.1860    -2.4660   -76.5720 hc         1 I6M       0.058200
     42 H9         -28.0310    -0.9830   -77.5190 hc         1 I6M       0.069700
     43 H10        -30.9080    -3.1820   -73.9720 ha         1 I6M       0.114000
     44 H11        -31.2040    -4.1900   -71.8520 h1         1 I6M       0.043200
     45 H12        -29.9060    -5.3400   -71.5690 h1         1 I6M       0.043200
     46 H13        -30.4160    -5.6690   -69.2670 h1         1 I6M       0.056200
     47 H14        -30.1390    -4.3490   -68.1180 h1         1 I6M       0.056200
     48 H15        -32.6320    -4.8460   -69.8320 hc         1 I6M       0.046700
     49 H16        -32.5420    -4.2610   -68.1720 hc         1 I6M       0.046700
     50 H17        -32.5470    -2.0220   -69.0250 hc         1 I6M       0.053200
     51 H18        -32.5570    -2.6520   -70.6690 hc         1 I6M       0.053200
     52 H19        -30.1470    -2.1050   -68.8420 h1         1 I6M       0.075700
     53 H20        -29.0910    -1.1750   -70.9080 h1         1 I6M       0.028700
     54 H21        -30.6320    -1.3930   -71.7620 h1         1 I6M       0.028700
     55 H22        -27.4350    -3.8470   -71.4660 ha         1 I6M       0.134000
     56 H23        -25.9940    -2.7340   -73.1770 ha         1 I6M       0.123000
     57 H24        -23.8440     2.0560   -76.2070 hn         1 I6M       0.189000
     58 H25        -27.6490     0.3670   -75.1170 hn         1 I6M       0.344500
     59 H26        -27.1780    -2.3650   -79.5270 hn         1 I6M       0.489000
     60 H27        -24.0990    -1.8050   -79.3170 hn         1 I6M       0.379400
     61 H28        -25.7420    -4.3630   -78.3030 hn         1 I6M       0.452500
     62 H29        -24.2980    -3.8930   -79.0060 hn         1 I6M       0.452500
     63 H31        -30.4050     0.7320   -70.8780 ho         1 I6M       0.446000
     64 C20        -27.7970    -3.1020   -77.6520 c3         1 I6M       0.230800
     65 N21        -26.8250    -2.9020   -78.7430 nu         1 I6M      -0.908400
     66 O34        -30.6570     0.0290   -70.2390 oh         1 I6M      -0.664000
@<TRIPOS>BOND
     1     1    11 ar  
     2     1    12 ar  
     3     1    25 1   
     4     2    13 1   
     5     2    15 1   
     6     2    27 1   
     7     2    34 1   
     8     3    13 ar  
     9     3    14 1   
    10     3    16 ar  
    11     4    28 2   
    12     4    29 1   
    13     4    65 1   
    14     5    16 ar  
    15     5    17 1   
    16     5    23 ar  
    17     6     7 1   
    18     6    27 1   
    19     6    31 2   
    20     7    26 1   
    21     7    32 2   
    22     8     9 ar  
    23     8    12 ar  
    24     8    26 1   
    25     9    10 ar  
    26     9    37 1   
    27    10    11 ar  
    28    10    38 1   
    29    11    33 1   
    30    12    39 1   
    31    13    24 ar  
    32    14    15 1   
    33    14    40 1   
    34    14    41 1   
    35    15    42 1   
    36    15    64 1   
    37    16    43 1   
    38    17    30 1   
    39    17    44 1   
    40    17    45 1   
    41    18    19 1   
    42    18    30 1   
    43    18    46 1   
    44    18    47 1   
    45    19    20 1   
    46    19    48 1   
    47    19    49 1   
    48    20    21 1   
    49    20    50 1   
    50    20    51 1   
    51    21    22 1   
    52    21    30 1   
    53    21    52 1   
    54    22    53 1   
    55    22    54 1   
    56    22    66 1   
    57    23    24 ar  
    58    23    55 1   
    59    24    56 1   
    60    26    57 1   
    61    27    58 1   
    62    28    60 1   
    63    29    61 1   
    64    29    62 1   
    65    35    64 1   
    66    36    64 1   
    67    59    65 1   
    68    63    66 1   
    69    64    65 1   
@<TRIPOS>SUBSTRUCTURE
     1 I6M         1 TEMP              0 ****  ****    0 ROOT
