@<TRIPOS>MOLECULE
I6O
   50    53     1     0     0
SMALL
abcg2


@<TRIPOS>ATOM
      1 N           25.3910     0.8310   -16.9730 n7         1 I6O      -0.821400
      2 CD          24.0690     0.2040   -17.1130 c5         1 I6O       0.151800
      3 CG          24.2750    -1.3230   -17.0430 c5         1 I6O      -0.101400
      4 CB          25.6910    -1.4790   -16.4950 c5         1 I6O      -0.111400
      5 CA          26.3920    -0.2240   -17.0480 c5         1 I6O       0.137200
      6 C           26.8440    -0.4390   -18.4630 cc         1 I6O       0.416800
      7 N6          26.1750    -0.1120   -19.5380 nd         1 I6O      -0.646000
      8 C27         26.9090    -0.5580   -20.6040 cd         1 I6O       0.289500
      9 C28         26.4720    -0.3520   -21.9830 ca         1 I6O      -0.096500
     10 C29         27.2010    -0.8650   -23.0610 ca         1 I6O      -0.097500
     11 C30         26.7870    -0.6510   -24.3660 ca         1 I6O      -0.115500
     12 C31         25.6330     0.0780   -24.6260 ca         1 I6O      -0.114000
     13 C32         24.8980     0.5880   -23.5640 ca         1 I6O      -0.115500
     14 C33         25.3110     0.3750   -22.2570 ca         1 I6O      -0.097500
     15 C34         28.0450    -1.1700   -20.1450 cc         1 I6O      -0.212000
     16 N7          27.9910    -1.0930   -18.7830 na         1 I6O      -0.165500
     17 C35         29.0360    -1.5280   -17.8760 c3         1 I6O       0.071600
     18 C36         29.9970    -0.4110   -17.4720 c6         1 I6O      -0.082700
     19 C37         30.9910    -0.9420   -16.4400 c6         1 I6O      -0.071900
     20 C38         31.9790     0.1340   -16.0030 c6         1 I6O      -0.072400
     21 C39         32.7070     0.7380   -17.1980 c6         1 I6O      -0.076400
     22 C40         31.7180     1.2680   -18.2300 c6         1 I6O      -0.072400
     23 C41         30.7350     0.1870   -18.6670 c6         1 I6O      -0.071900
     24 H1          25.4590     1.2520   -16.0570 hn         1 I6O       0.401000
     25 H3          23.6050     0.4860   -18.0600 h1         1 I6O       0.050700
     26 H4          23.4100     0.5560   -16.3180 h1         1 I6O       0.050700
     27 H5          23.5300    -1.8130   -16.4160 hc         1 I6O       0.054700
     28 H6          24.2020    -1.7640   -18.0380 hc         1 I6O       0.054700
     29 H7          25.6940    -1.4310   -15.4040 hc         1 I6O       0.048200
     30 H8          26.1650    -2.4180   -16.7860 hc         1 I6O       0.048200
     31 H9          27.2520     0.0550   -16.4330 h1         1 I6O       0.057700
     32 H10         28.1030    -1.4380   -22.8820 ha         1 I6O       0.118500
     33 H11         27.3690    -1.0560   -25.1840 ha         1 I6O       0.108500
     34 H12         25.3110     0.2460   -25.6460 ha         1 I6O       0.109000
     35 H13         23.9960     1.1560   -23.7530 ha         1 I6O       0.108500
     36 H14         24.7310     0.7770   -21.4370 ha         1 I6O       0.118500
     37 H15         28.8760    -1.6370   -20.6490 h4         1 I6O       0.155000
     38 H16         28.5710    -1.9630   -16.9890 h1         1 I6O       0.058200
     39 H17         29.5870    -2.3320   -18.3680 h1         1 I6O       0.058200
     40 H18         29.4130     0.3890   -16.9980 hc         1 I6O       0.059700
     41 H19         30.4510    -1.3340   -15.5730 hc         1 I6O       0.041950
     42 H20         31.5410    -1.7850   -16.8740 hc         1 I6O       0.041950
     43 H21         32.6940    -0.2850   -15.2910 hc         1 I6O       0.042200
     44 H22         31.4380     0.9250   -15.4720 hc         1 I6O       0.042200
     45 H23         33.3380    -0.0280   -17.6630 hc         1 I6O       0.040200
     46 H24         33.3780     1.5360   -16.8700 hc         1 I6O       0.040200
     47 H25         32.2500     1.6610   -19.0990 hc         1 I6O       0.042200
     48 H26         31.1610     2.1080   -17.8010 hc         1 I6O       0.042200
     49 H27         30.0280     0.6050   -19.3880 hc         1 I6O       0.041950
     50 H28         31.2780    -0.6120   -19.1870 hc         1 I6O       0.041950
@<TRIPOS>BOND
     1     1     2 1   
     2     1     5 1   
     3     1    24 1   
     4     2     3 1   
     5     2    25 1   
     6     2    26 1   
     7     3     4 1   
     8     3    27 1   
     9     3    28 1   
    10     4     5 1   
    11     4    29 1   
    12     4    30 1   
    13     5     6 1   
    14     5    31 1   
    15     6     7 2   
    16     6    16 1   
    17     7     8 1   
    18     8     9 1   
    19     8    15 2   
    20     9    10 ar  
    21     9    14 ar  
    22    10    11 ar  
    23    10    32 1   
    24    11    12 ar  
    25    11    33 1   
    26    12    13 ar  
    27    12    34 1   
    28    13    14 ar  
    29    13    35 1   
    30    14    36 1   
    31    15    16 1   
    32    15    37 1   
    33    16    17 1   
    34    17    18 1   
    35    17    38 1   
    36    17    39 1   
    37    18    19 1   
    38    18    23 1   
    39    18    40 1   
    40    19    20 1   
    41    19    41 1   
    42    19    42 1   
    43    20    21 1   
    44    20    43 1   
    45    20    44 1   
    46    21    22 1   
    47    21    45 1   
    48    21    46 1   
    49    22    23 1   
    50    22    47 1   
    51    22    48 1   
    52    23    49 1   
    53    23    50 1   
@<TRIPOS>SUBSTRUCTURE
     1 I6O         1 TEMP              0 ****  ****    0 ROOT
