@<TRIPOS>MOLECULE
I6O
   50    53     1     0     0
SMALL
No Charge or Current Charge


@<TRIPOS>ATOM
      1 N           25.2750     0.8530   -16.7410 n7         1 I6O      -0.821400
      2 CD          23.9990     0.1820   -17.1040 c5         1 I6O       0.151800
      3 CG          24.2490    -1.3470   -16.9380 c5         1 I6O      -0.101400
      4 CB          25.6980    -1.4250   -16.3860 c5         1 I6O      -0.111400
      5 CA          26.3440    -0.1590   -17.0050 c5         1 I6O       0.137200
      6 C           26.7510    -0.3840   -18.4850 cc         1 I6O       0.416800
      7 N6          26.0640    -0.0680   -19.5790 nd         1 I6O      -0.646000
      8 C27         26.8310    -0.4830   -20.6460 cd         1 I6O       0.289500
      9 C28         26.4070    -0.3110   -22.0540 ca         1 I6O      -0.096500
     10 C29         27.2300    -0.7530   -23.1150 ca         1 I6O      -0.097500
     11 C30         26.8270    -0.5890   -24.4520 ca         1 I6O      -0.115500
     12 C31         25.5980     0.0190   -24.7480 ca         1 I6O      -0.114000
     13 C32         24.7700     0.4640   -23.7060 ca         1 I6O      -0.115500
     14 C33         25.1710     0.3010   -22.3680 ca         1 I6O      -0.097500
     15 C34         27.9970    -1.0580   -20.2060 cc         1 I6O      -0.212000
     16 N7          27.9540    -0.9860   -18.8300 na         1 I6O      -0.165500
     17 C35         29.0090    -1.4670   -17.9170 c3         1 I6O       0.071600
     18 C36         30.0430    -0.3890   -17.4760 c6         1 I6O      -0.082700
     19 C37         31.0090    -0.9600   -16.4010 c6         1 I6O      -0.071900
     20 C38         32.0420     0.1000   -15.9420 c6         1 I6O      -0.072400
     21 C39         32.8370     0.6640   -17.1440 c6         1 I6O      -0.076400
     22 C40         31.8840     1.2410   -18.2190 c6         1 I6O      -0.072400
     23 C41         30.8490     0.1850   -18.6790 c6         1 I6O      -0.071900
     24 H1          25.2570     1.0240   -15.7290 hn         1 I6O       0.401000
     25 H3          23.7230     0.4090   -18.1440 h1         1 I6O       0.050700
     26 H4          23.1750     0.5340   -16.4670 h1         1 I6O       0.050700
     27 H5          23.5250    -1.8150   -16.2620 hc         1 I6O       0.054700
     28 H6          24.1630    -1.8590   -17.9040 hc         1 I6O       0.054700
     29 H7          25.7070    -1.3750   -15.2910 hc         1 I6O       0.048200
     30 H8          26.2080    -2.3530   -16.6710 hc         1 I6O       0.048200
     31 H9          27.2480     0.1160   -16.4460 h1         1 I6O       0.057700
     32 H10         28.1870    -1.2270   -22.9120 ha         1 I6O       0.118500
     33 H11         27.4700    -0.9350   -25.2580 ha         1 I6O       0.108500
     34 H12         25.2870     0.1450   -25.7830 ha         1 I6O       0.109000
     35 H13         23.8170     0.9350   -23.9330 ha         1 I6O       0.108500
     36 H14         24.5140     0.6530   -21.5760 ha         1 I6O       0.118500
     37 H15         28.8280    -1.4900   -20.7470 h4         1 I6O       0.155000
     38 H16         28.5350    -1.8870   -17.0220 h1         1 I6O       0.058200
     39 H17         29.5460    -2.2870   -18.4110 h1         1 I6O       0.058200
     40 H18         29.4700     0.4310   -17.0220 hc         1 I6O       0.059700
     41 H19         30.4370    -1.3120   -15.5320 hc         1 I6O       0.041950
     42 H20         31.5380    -1.8370   -16.8020 hc         1 I6O       0.041950
     43 H21         32.7340    -0.3450   -15.2140 hc         1 I6O       0.042200
     44 H22         31.5260     0.9190   -15.4220 hc         1 I6O       0.042200
     45 H23         33.4550    -0.1310   -17.5850 hc         1 I6O       0.040200
     46 H24         33.5290     1.4440   -16.8010 hc         1 I6O       0.040200
     47 H25         32.4660     1.5920   -19.0820 hc         1 I6O       0.042200
     48 H26         31.3620     2.1200   -17.8160 hc         1 I6O       0.042200
     49 H27         30.1690     0.6460   -19.4070 hc         1 I6O       0.041950
     50 H28         31.3640    -0.6310   -19.2060 hc         1 I6O       0.041950
@<TRIPOS>BOND
     1     1     2 1   
     2     1     5 1   
     3     1    24 1   
     4     2     3 1   
     5     2    25 1   
     6     2    26 1   
     7     3     4 1   
     8     3    27 1   
     9     3    28 1   
    10     4     5 1   
    11     4    29 1   
    12     4    30 1   
    13     5     6 1   
    14     5    31 1   
    15     6     7 2   
    16     6    16 1   
    17     7     8 1   
    18     8     9 1   
    19     8    15 2   
    20     9    10 ar  
    21     9    14 ar  
    22    10    11 ar  
    23    10    32 1   
    24    11    12 ar  
    25    11    33 1   
    26    12    13 ar  
    27    12    34 1   
    28    13    14 ar  
    29    13    35 1   
    30    14    36 1   
    31    15    16 1   
    32    15    37 1   
    33    16    17 1   
    34    17    18 1   
    35    17    38 1   
    36    17    39 1   
    37    18    19 1   
    38    18    23 1   
    39    18    40 1   
    40    19    20 1   
    41    19    41 1   
    42    19    42 1   
    43    20    21 1   
    44    20    43 1   
    45    20    44 1   
    46    21    22 1   
    47    21    45 1   
    48    21    46 1   
    49    22    23 1   
    50    22    47 1   
    51    22    48 1   
    52    23    49 1   
    53    23    50 1   
@<TRIPOS>SUBSTRUCTURE
     1 I6O         1 TEMP              0 ****  ****    0 ROOT
