@<TRIPOS>MOLECULE
I6Q
   64    67     1     0     0
SMALL
abcg2


@<TRIPOS>ATOM
      1 C10        -24.5110     6.6120   -75.5640 ca         1 I6Q       0.208000
      2 C15        -26.7330    -1.2470   -75.8220 c5         1 I6Q       0.163000
      3 C17        -28.8930    -1.9480   -75.1200 ca         1 I6Q      -0.079300
      4 C22        -25.4040    -3.7990   -78.9870 c2         1 I6Q       0.792100
      5 C26        -29.4740    -2.8460   -72.9670 ca         1 I6Q      -0.071300
      6 C02        -25.6130     0.8810   -76.2350 c          1 I6Q       0.517100
      7 C03        -25.5540     2.3540   -75.7930 c          1 I6Q       0.523100
      8 C05        -24.3830     4.4160   -76.4920 ca         1 I6Q       0.008000
      9 C06        -23.4860     4.9010   -77.4460 ca         1 I6Q      -0.171000
     10 C07        -23.1130     6.2300   -77.4530 ca         1 I6Q      -0.049000
     11 C08        -23.6250     7.1040   -76.5060 ca         1 I6Q       0.039000
     12 C12        -24.9020     5.2890   -75.5360 ca         1 I6Q      -0.176000
     13 C16        -27.5700    -1.8380   -74.7200 ca         1 I6Q      -0.126300
     14 C18        -29.0610    -1.4610   -76.5310 c5         1 I6Q      -0.033100
     15 C19        -27.6220    -1.4460   -77.0750 c5         1 I6Q      -0.092700
     16 C25        -29.8470    -2.4540   -74.2490 ca         1 I6Q      -0.098000
     17 C27        -30.5030    -3.3770   -72.0020 c3         1 I6Q       0.216100
     18 C29        -31.0560    -5.1090   -70.4080 c5         1 I6Q       0.163800
     19 C30        -30.7560    -6.6060   -70.2590 c5         1 I6Q      -0.119400
     20 C31        -29.8980    -6.9660   -71.4980 c5         1 I6Q       0.150500
     21 C33        -30.0540    -5.7390   -72.3890 c5         1 I6Q       0.162800
     22 C34        -28.1370    -2.7310   -72.5780 ca         1 I6Q      -0.092000
     23 C35        -27.1800    -2.2260   -73.4470 ca         1 I6Q      -0.080000
     24 F11        -25.0060     7.4450   -74.6470 f          1 I6Q      -0.158000
     25 N04        -24.7060     3.0630   -76.5570 ns         1 I6Q      -0.120000
     26 N14        -26.4820     0.1580   -75.5400 ns         1 I6Q      -0.466900
     27 N23        -24.4360    -3.5480   -79.7920 n2         1 I6Q      -0.896100
     28 N24        -26.0010    -5.0240   -78.8000 nv         1 I6Q      -1.070200
     29 N28        -30.1320    -4.6520   -71.4370 n3         1 I6Q      -0.721600
     30 N32        -30.2150    -8.1910   -72.2050 n8         1 I6Q      -0.987200
     31 O01        -24.9060     0.4700   -77.1430 o          1 I6Q      -0.604100
     32 O13        -26.2200     2.7680   -74.8640 o          1 I6Q      -0.574100
     33 CL09       -23.1790     8.7660   -76.4850 cl         1 I6Q      -0.167000
     34 H1         -25.7690    -1.7490   -75.9310 h1         1 I6Q       0.101700
     35 H2         -28.0310    -2.9030   -78.5860 h1         1 I6Q       0.041700
     36 H3         -27.4680    -3.5840   -77.0660 h1         1 I6Q       0.041700
     37 H4         -23.0750     4.2340   -78.1940 ha         1 I6Q       0.127000
     38 H5         -22.4180     6.5910   -78.2000 ha         1 I6Q       0.134000
     39 H6         -25.5960     4.9650   -74.7760 ha         1 I6Q       0.166000
     40 H7         -29.4930    -0.4560   -76.5390 hc         1 I6Q       0.061200
     41 H8         -29.7260    -2.0910   -77.1250 hc         1 I6Q       0.061200
     42 H9         -27.4740    -0.6330   -77.7900 hc         1 I6Q       0.071700
     43 H10        -30.8800    -2.5530   -74.5640 ha         1 I6Q       0.116000
     44 H11        -30.6170    -2.6640   -71.1790 h1         1 I6Q       0.039200
     45 H12        -31.4830    -3.4250   -72.5070 h1         1 I6Q       0.039200
     46 H13        -30.9150    -4.5400   -69.4860 h1         1 I6Q       0.036700
     47 H14        -32.1030    -4.9640   -70.7200 h1         1 I6Q       0.036700
     48 H15        -31.6780    -7.1890   -70.2530 hc         1 I6Q       0.046700
     49 H16        -30.2300    -6.8300   -69.3310 hc         1 I6Q       0.046700
     50 H17        -28.8500    -7.0320   -71.1930 h1         1 I6Q       0.072700
     51 H18        -29.2210    -5.6100   -73.0810 h1         1 I6Q       0.045200
     52 H19        -30.9770    -5.8290   -72.9930 h1         1 I6Q       0.045200
     53 H20        -27.8460    -3.0480   -71.5840 ha         1 I6Q       0.131000
     54 H21        -26.1470    -2.1420   -73.1320 ha         1 I6Q       0.123000
     55 H22        -24.2510     2.5290   -77.2880 hn         1 I6Q       0.189000
     56 H23        -27.0270     0.6200   -74.8260 hn         1 I6Q       0.349500
     57 H24        -25.5910    -1.8730   -78.5450 hn         1 I6Q       0.498000
     58 H25        -24.0830    -4.4020   -80.2070 hn         1 I6Q       0.377400
     59 H26        -26.3960    -5.2150   -77.8930 hn         1 I6Q       0.453500
     60 H27        -25.4800    -5.8110   -79.1540 hn         1 I6Q       0.453500
     61 H29        -30.0440    -8.9870   -71.6030 hn         1 I6Q       0.394000
     62 H30        -31.2060    -8.2140   -72.4160 hn         1 I6Q       0.394000
     63 C20        -27.3080    -2.7640   -77.7740 c3         1 I6Q       0.224800
     64 N21        -25.9410    -2.7720   -78.2510 nu         1 I6Q      -0.907400
@<TRIPOS>BOND
     1     1    11 ar  
     2     1    12 ar  
     3     1    24 1   
     4     2    13 1   
     5     2    15 1   
     6     2    26 1   
     7     2    34 1   
     8     3    13 ar  
     9     3    14 1   
    10     3    16 ar  
    11     4    27 2   
    12     4    28 1   
    13     4    64 1   
    14     5    16 ar  
    15     5    17 1   
    16     5    22 ar  
    17     6     7 1   
    18     6    26 1   
    19     6    31 2   
    20     7    25 1   
    21     7    32 2   
    22     8     9 ar  
    23     8    12 ar  
    24     8    25 1   
    25     9    10 ar  
    26     9    37 1   
    27    10    11 ar  
    28    10    38 1   
    29    11    33 1   
    30    12    39 1   
    31    13    23 ar  
    32    14    15 1   
    33    14    40 1   
    34    14    41 1   
    35    15    42 1   
    36    15    63 1   
    37    16    43 1   
    38    17    29 1   
    39    17    44 1   
    40    17    45 1   
    41    18    19 1   
    42    18    29 1   
    43    18    46 1   
    44    18    47 1   
    45    19    20 1   
    46    19    48 1   
    47    19    49 1   
    48    20    21 1   
    49    20    30 1   
    50    20    50 1   
    51    21    29 1   
    52    21    51 1   
    53    21    52 1   
    54    22    23 ar  
    55    22    53 1   
    56    23    54 1   
    57    25    55 1   
    58    26    56 1   
    59    27    58 1   
    60    28    59 1   
    61    28    60 1   
    62    30    61 1   
    63    30    62 1   
    64    35    63 1   
    65    36    63 1   
    66    57    64 1   
    67    63    64 1   
@<TRIPOS>SUBSTRUCTURE
     1 I6Q         1 TEMP              0 ****  ****    0 ROOT
