@<TRIPOS>MOLECULE
I6Q
   64    67     1     0     0
SMALL
No Charge or Current Charge


@<TRIPOS>ATOM
      1 C10        -24.2200     6.6960   -76.3340 ca         1 I6Q       0.208000
      2 C15        -26.8350    -1.2620   -75.3920 c5         1 I6Q       0.163000
      3 C17        -29.0010    -2.0830   -74.7630 ca         1 I6Q      -0.079300
      4 C22        -25.4370    -2.8890   -79.1870 c2         1 I6Q       0.792100
      5 C26        -29.6150    -2.9450   -72.5760 ca         1 I6Q      -0.071300
      6 C02        -25.7260     0.8100   -76.1020 c          1 I6Q       0.517100
      7 C03        -25.5950     2.3890   -75.8850 c          1 I6Q       0.523100
      8 C05        -24.2020     4.3130   -76.8750 ca         1 I6Q       0.008000
      9 C06        -23.2020     4.5620   -77.8350 ca         1 I6Q      -0.171000
     10 C07        -22.7110     5.8640   -78.0450 ca         1 I6Q      -0.049000
     11 C08        -23.2200     6.9350   -77.2940 ca         1 I6Q       0.039000
     12 C12        -24.7100     5.3960   -76.1230 ca         1 I6Q      -0.176000
     13 C16        -27.7160    -1.8460   -74.3240 ca         1 I6Q      -0.126300
     14 C18        -29.2060    -1.6740   -76.1950 c5         1 I6Q      -0.033100
     15 C19        -27.7160    -1.4890   -76.7000 c5         1 I6Q      -0.092700
     16 C25        -29.9690    -2.6290   -73.9060 ca         1 I6Q      -0.098000
     17 C27        -30.6450    -3.5430   -71.6230 c3         1 I6Q       0.216100
     18 C29        -31.3200    -5.5790   -70.3410 c5         1 I6Q       0.163800
     19 C30        -31.0130    -7.1060   -70.4450 c5         1 I6Q      -0.119400
     20 C31        -30.1160    -7.2390   -71.7130 c5         1 I6Q       0.150500
     21 C33        -30.4110    -5.9000   -72.4540 c5         1 I6Q       0.162800
     22 C34        -28.2950    -2.7030   -72.1330 ca         1 I6Q      -0.092000
     23 C35        -27.3390    -2.1500   -73.0060 ca         1 I6Q      -0.080000
     24 F11        -24.7200     7.7180   -75.6020 f          1 I6Q      -0.158000
     25 N04        -24.6470     2.9710   -76.7200 ns         1 I6Q      -0.120000
     26 N14        -26.6710     0.1910   -75.2910 ns         1 I6Q      -0.466900
     27 N23        -24.7910    -2.0970   -79.8830 n2         1 I6Q      -0.896100
     28 N24        -25.0200    -4.0830   -78.9120 nv         1 I6Q      -1.070200
     29 N28        -30.3830    -4.9640   -71.3070 n3         1 I6Q      -0.721600
     30 N32        -30.3890    -8.4700   -72.4860 n8         1 I6Q      -0.987200
     31 O01        -25.0510     0.1910   -76.9260 o          1 I6Q      -0.604100
     32 O13        -26.2750     3.0000   -75.0570 o          1 I6Q      -0.574100
     33 Cl09       -22.5970     8.5620   -77.5680 cl         1 I6Q      -0.167000
     34 H1         -25.8700    -1.7880   -75.4330 h1         1 I6Q       0.101700
     35 H2         -27.8940    -2.8230   -78.3880 h1         1 I6Q       0.041700
     36 H3         -27.2520    -3.6030   -76.9280 h1         1 I6Q       0.041700
     37 H4         -22.7970     3.7420   -78.4250 ha         1 I6Q       0.127000
     38 H5         -21.9380     6.0420   -78.7900 ha         1 I6Q       0.134000
     39 H6         -25.4800     5.2590   -75.3730 ha         1 I6Q       0.166000
     40 H7         -29.7660    -0.7350   -76.2580 hc         1 I6Q       0.061200
     41 H8         -29.7600    -2.4210   -76.7760 hc         1 I6Q       0.061200
     42 H9         -27.6740    -0.6350   -77.3870 hc         1 I6Q       0.071700
     43 H10        -30.9800    -2.8070   -74.2660 ha         1 I6Q       0.116000
     44 H11        -30.6370    -2.9530   -70.6960 h1         1 I6Q       0.039200
     45 H12        -31.6460    -3.4350   -72.0610 h1         1 I6Q       0.039200
     46 H13        -31.1720    -5.1950   -69.3220 h1         1 I6Q       0.036700
     47 H14        -32.3630    -5.3800   -70.6260 h1         1 I6Q       0.036700
     48 H15        -31.9440    -7.6780   -70.5230 hc         1 I6Q       0.046700
     49 H16        -30.4880    -7.4690   -69.5550 hc         1 I6Q       0.046700
     50 H17        -29.0560    -7.2560   -71.4180 h1         1 I6Q       0.072700
     51 H18        -29.6430    -5.6710   -73.2060 h1         1 I6Q       0.045200
     52 H19        -31.3920    -5.9100   -72.9500 h1         1 I6Q       0.045200
     53 H20        -28.0140    -2.9480   -71.1110 ha         1 I6Q       0.131000
     54 H21        -26.3230    -1.9650   -72.6650 ha         1 I6Q       0.123000
     55 H22        -24.1870     2.3110   -77.3340 hn         1 I6Q       0.189000
     56 H23        -27.1840     0.7750   -74.6390 hn         1 I6Q       0.349500
     57 H24        -25.5080    -1.5020   -77.8890 hn         1 I6Q       0.498000
     58 H25        -24.2550    -2.6550   -80.5550 hn         1 I6Q       0.377400
     59 H26        -25.2660    -4.2310   -77.9470 hn         1 I6Q       0.453500
     60 H27        -24.0290    -4.1740   -79.0730 hn         1 I6Q       0.453500
     61 H29        -30.2490    -9.2840   -71.8760 hn         1 I6Q       0.394000
     62 H30        -31.3910    -8.5090   -72.7070 hn         1 I6Q       0.394000
     63 C20        -27.2140    -2.6880   -77.5350 c3         1 I6Q       0.224800
     64 N21        -25.8470    -2.4560   -78.0220 nu         1 I6Q      -0.907400
@<TRIPOS>BOND
     1     1    11 ar  
     2     1    12 ar  
     3     1    24 1   
     4     2    13 1   
     5     2    15 1   
     6     2    26 1   
     7     2    34 1   
     8     3    13 ar  
     9     3    14 1   
    10     3    16 ar  
    11     4    27 2   
    12     4    28 1   
    13     4    64 1   
    14     5    16 ar  
    15     5    17 1   
    16     5    22 ar  
    17     6     7 1   
    18     6    26 1   
    19     6    31 2   
    20     7    25 1   
    21     7    32 2   
    22     8     9 ar  
    23     8    12 ar  
    24     8    25 1   
    25     9    10 ar  
    26     9    37 1   
    27    10    11 ar  
    28    10    38 1   
    29    11    33 1   
    30    12    39 1   
    31    13    23 ar  
    32    14    15 1   
    33    14    40 1   
    34    14    41 1   
    35    15    42 1   
    36    15    63 1   
    37    16    43 1   
    38    17    29 1   
    39    17    44 1   
    40    17    45 1   
    41    18    19 1   
    42    18    29 1   
    43    18    46 1   
    44    18    47 1   
    45    19    20 1   
    46    19    48 1   
    47    19    49 1   
    48    20    21 1   
    49    20    30 1   
    50    20    50 1   
    51    21    29 1   
    52    21    51 1   
    53    21    52 1   
    54    22    23 ar  
    55    22    53 1   
    56    23    54 1   
    57    25    55 1   
    58    26    56 1   
    59    27    58 1   
    60    28    59 1   
    61    28    60 1   
    62    30    61 1   
    63    30    62 1   
    64    35    63 1   
    65    36    63 1   
    66    57    64 1   
    67    63    64 1   
@<TRIPOS>SUBSTRUCTURE
     1 I6Q         1 TEMP              0 ****  ****    0 ROOT
