@<TRIPOS>MOLECULE
I6R
   18    18     1     0     0
SMALL
abcg2


@<TRIPOS>ATOM
      1 C01        -16.1720   -24.7820    11.9580 c3         1 I6R      -0.088100
      2 C02        -16.3480   -25.8930    10.9200 c3         1 I6R      -0.134700
      3 C03        -15.2980   -26.9440    11.0810 c2         1 I6R       0.508300
      4 C04        -13.9890   -26.6910    10.4110 c6         1 I6R      -0.284700
      5 C05        -12.9210   -27.7030    10.6930 c          1 I6R       0.584000
      6 C08        -14.5900   -28.9480    11.9970 c          1 I6R       0.705400
      7 N07        -13.3290   -28.7610    11.4560 ns         1 I6R      -0.497500
      8 N10        -15.5630   -27.9750    11.7860 ne         1 I6R      -0.630100
      9 O06        -11.7900   -27.6110    10.2760 o          1 I6R      -0.511000
     10 O09        -14.8330   -29.9360    12.6450 o          1 I6R      -0.475000
     11 H1         -16.9500   -24.0310    11.8270 hc         1 I6R       0.044700
     12 H2         -16.2500   -25.1760    12.9700 hc         1 I6R       0.044700
     13 H3         -15.2080   -24.2810    11.8590 hc         1 I6R       0.044700
     14 H4         -16.2920   -25.4700     9.9150 hc         1 I6R       0.069700
     15 H5         -17.3290   -26.3540    11.0380 hc         1 I6R       0.069700
     16 H6         -13.6200   -25.6940    10.6710 hc         1 I6R       0.105700
     17 H7         -14.1580   -26.6560     9.3290 hc         1 I6R       0.105700
     18 H8         -12.6430   -29.4810    11.6550 hn         1 I6R       0.340500
@<TRIPOS>BOND
     1     1     2 1   
     2     1    11 1   
     3     1    12 1   
     4     1    13 1   
     5     2     3 1   
     6     2    14 1   
     7     2    15 1   
     8     3     4 1   
     9     3     8 2   
    10     4     5 1   
    11     4    16 1   
    12     4    17 1   
    13     5     7 1   
    14     5     9 2   
    15     6     7 1   
    16     6     8 1   
    17     6    10 2   
    18     7    18 1   
@<TRIPOS>SUBSTRUCTURE
     1 I6R         1 TEMP              0 ****  ****    0 ROOT
