@<TRIPOS>MOLECULE
I6R
   18    18     1     0     0
SMALL
No Charge or Current Charge


@<TRIPOS>ATOM
      1 C01        -16.0210   -24.6880    11.9580 c3         1 I6R      -0.088100
      2 C02        -16.3540   -25.8770    11.0290 c3         1 I6R      -0.134700
      3 C03        -15.3130   -26.9770    11.0680 c2         1 I6R       0.508300
      4 C04        -14.0690   -26.7750    10.2600 c6         1 I6R      -0.284700
      5 C05        -12.9710   -27.5210    10.9610 c          1 I6R       0.584000
      6 C08        -14.6180   -29.1200    11.7600 c          1 I6R       0.705400
      7 N07        -13.3560   -28.7300    11.4280 ns         1 I6R      -0.497500
      8 N10        -15.5540   -28.0820    11.7080 ne         1 I6R      -0.630100
      9 O06        -11.8690   -27.0520    11.1840 o          1 I6R      -0.511000
     10 O09        -14.8610   -30.2530    12.1270 o          1 I6R      -0.475000
     11 H1         -16.8120   -23.9300    11.9070 hc         1 I6R       0.044700
     12 H2         -15.9350   -25.0220    12.9990 hc         1 I6R       0.044700
     13 H3         -15.0760   -24.2140    11.6670 hc         1 I6R       0.044700
     14 H4         -16.4680   -25.5120    10.0010 hc         1 I6R       0.069700
     15 H5         -17.3320   -26.2810    11.3180 hc         1 I6R       0.069700
     16 H6         -13.7970   -25.7240    10.1110 hc         1 I6R       0.105700
     17 H7         -14.2550   -27.2680     9.2980 hc         1 I6R       0.105700
     18 H8         -12.6210   -29.3620    11.7050 hn         1 I6R       0.340500
@<TRIPOS>BOND
     1     1     2 1   
     2     1    11 1   
     3     1    12 1   
     4     1    13 1   
     5     2     3 1   
     6     2    14 1   
     7     2    15 1   
     8     3     4 1   
     9     3     8 2   
    10     4     5 1   
    11     4    16 1   
    12     4    17 1   
    13     5     7 1   
    14     5     9 2   
    15     6     7 1   
    16     6     8 1   
    17     6    10 2   
    18     7    18 1   
@<TRIPOS>SUBSTRUCTURE
     1 I6R         1 TEMP              0 ****  ****    0 ROOT
