@<TRIPOS>MOLECULE
I6S
   61    63     1     0     0
SMALL
abcg2


@<TRIPOS>ATOM
      1 C10         33.3750    -2.6950   114.2760 c3         1 I6S      -0.070400
      2 C11         33.2060    -2.6140   112.7620 c3         1 I6S      -0.079400
      3 C12         34.4800    -2.9170   111.9840 c3         1 I6S      -0.089100
      4 C13         33.4810    -6.5120   115.0310 c          1 I6S       0.594100
      5 C16         35.0490    -8.3760   114.5210 ca         1 I6S      -0.018000
      6 C17         35.7220    -8.9760   113.4530 ca         1 I6S      -0.149000
      7 C18         36.4610   -10.1310   113.6420 ca         1 I6S      -0.084000
      8 C19         36.5430   -10.7140   114.9000 ca         1 I6S      -0.137000
      9 C20         35.8780   -10.1180   115.9610 ca         1 I6S      -0.084000
     10 C21         35.1330    -8.9590   115.7870 ca         1 I6S      -0.149000
     11 C22         28.6480    -4.4380   115.4560 cc         1 I6S      -0.016300
     12 C23         29.2880    -3.1330   115.8060 c3         1 I6S      -0.041800
     13 C24         27.2740    -4.7840   115.6190 cc         1 I6S      -0.270600
     14 C25         26.1420    -4.0370   116.1340 c          1 I6S       0.619700
     15 C27         24.8380    -4.8100   116.1910 c6         1 I6S      -0.175400
     16 C28         24.6390    -5.8560   115.0840 c6         1 I6S      -0.032000
     17 C29         23.3510    -6.6310   115.3510 c3         1 I6S      -0.088600
     18 C30         24.5330    -5.1730   113.7190 c3         1 I6S      -0.088600
     19 C01         25.8260    -6.8320   115.1040 c6         1 I6S      -0.017100
     20 C02         27.1010    -6.0770   115.1350 cd         1 I6S      -0.085300
     21 C04         29.2500    -5.5430   114.8900 cd         1 I6S      -0.265600
     22 C08         32.9480    -5.2280   114.3890 c3         1 I6S       0.035700
     23 C09         33.8340    -4.0530   114.8100 c3         1 I6S      -0.086400
     24 N03         28.2840    -6.5110   114.7050 na         1 I6S      -0.054000
     25 N07         31.5880    -4.9940   114.7930 ns         1 I6S      -0.474900
     26 O06         30.8310    -6.8380   113.7440 o          1 I6S      -0.629100
     27 O14         33.1790    -6.8220   116.1660 o          1 I6S      -0.577100
     28 H1          34.1120    -1.9520   114.5930 hc         1 I6S       0.042200
     29 H2          32.4380    -2.4050   114.7570 hc         1 I6S       0.042200
     30 H3          32.8610    -1.6070   112.5120 hc         1 I6S       0.044200
     31 H4          32.4060    -3.2860   112.4360 hc         1 I6S       0.044200
     32 H5          34.3360    -2.7590   110.9150 hc         1 I6S       0.031367
     33 H6          35.3000    -2.2710   112.3060 hc         1 I6S       0.031367
     34 H7          34.8060    -3.9500   112.1170 hc         1 I6S       0.031367
     35 H8          35.6640    -8.5330   112.4650 ha         1 I6S       0.126500
     36 H9          36.9710   -10.5770   112.7980 ha         1 I6S       0.112000
     37 H10         37.1180   -11.6190   115.0490 ha         1 I6S       0.114000
     38 H11         35.9340   -10.5570   116.9480 ha         1 I6S       0.112000
     39 H12         34.6300    -8.5220   116.6330 ha         1 I6S       0.126500
     40 H13         29.9410    -2.7770   115.0080 hc         1 I6S       0.052700
     41 H14         28.5370    -2.3700   115.9850 hc         1 I6S       0.052700
     42 H15         29.8890    -3.2070   116.7160 hc         1 I6S       0.052700
     43 H16         24.0080    -4.0990   116.1940 hc         1 I6S       0.068700
     44 H17         24.8190    -5.3160   117.1660 hc         1 I6S       0.068700
     45 H18         23.3790    -7.1310   116.3210 hc         1 I6S       0.039367
     46 H19         22.4860    -5.9640   115.3430 hc         1 I6S       0.039367
     47 H20         23.1910    -7.3930   114.5850 hc         1 I6S       0.039367
     48 H21         23.6820    -4.4890   113.7000 hc         1 I6S       0.039367
     49 H22         25.4240    -4.5980   113.4620 hc         1 I6S       0.039367
     50 H23         24.3800    -5.9120   112.9310 hc         1 I6S       0.039367
     51 H24         25.7880    -7.5010   114.2400 hc         1 I6S       0.059700
     52 H25         25.7590    -7.4660   115.9960 hc         1 I6S       0.059700
     53 H26         32.9790    -5.3240   113.2990 h1         1 I6S       0.076700
     54 H27         34.8520    -4.2610   114.4730 hc         1 I6S       0.057200
     55 H28         33.8760    -4.0110   115.9020 hc         1 I6S       0.057200
     56 H29         28.4640    -7.4100   114.2840 hn         1 I6S       0.371000
     57 H30         31.4300    -4.3460   115.5470 hn         1 I6S       0.332500
     58 N15         34.3350    -7.2060   114.2400 ns         1 I6S      -0.138000
     59 C05         30.6080    -5.8490   114.4360 c          1 I6S       0.642700
     60 O26         26.2060    -2.8870   116.5360 o          1 I6S      -0.545100
     61 H31         34.4410    -6.8640   113.2960 hn         1 I6S       0.151000
@<TRIPOS>BOND
     1     1     2 1   
     2     1    23 1   
     3     1    28 1   
     4     1    29 1   
     5     2     3 1   
     6     2    30 1   
     7     2    31 1   
     8     3    32 1   
     9     3    33 1   
    10     3    34 1   
    11     4    22 1   
    12     4    27 2   
    13     4    58 1   
    14     5     6 ar  
    15     5    10 ar  
    16     5    58 1   
    17     6     7 ar  
    18     6    35 1   
    19     7     8 ar  
    20     7    36 1   
    21     8     9 ar  
    22     8    37 1   
    23     9    10 ar  
    24     9    38 1   
    25    10    39 1   
    26    11    12 1   
    27    11    13 1   
    28    11    21 2   
    29    12    40 1   
    30    12    41 1   
    31    12    42 1   
    32    13    14 1   
    33    13    20 2   
    34    14    15 1   
    35    14    60 2   
    36    15    16 1   
    37    15    43 1   
    38    15    44 1   
    39    16    17 1   
    40    16    18 1   
    41    16    19 1   
    42    17    45 1   
    43    17    46 1   
    44    17    47 1   
    45    18    48 1   
    46    18    49 1   
    47    18    50 1   
    48    19    20 1   
    49    19    51 1   
    50    19    52 1   
    51    20    24 1   
    52    21    24 1   
    53    21    59 1   
    54    22    23 1   
    55    22    25 1   
    56    22    53 1   
    57    23    54 1   
    58    23    55 1   
    59    24    56 1   
    60    25    57 1   
    61    25    59 1   
    62    26    59 2   
    63    58    61 1   
@<TRIPOS>SUBSTRUCTURE
     1 I6S         1 TEMP              0 ****  ****    0 ROOT
