@<TRIPOS>MOLECULE
I6S
   61    63     1     0     0
SMALL
No Charge or Current Charge


@<TRIPOS>ATOM
      1 C10         32.7790    -3.3450   113.0370 c3         1 I6S      -0.070400
      2 C11         33.0470    -3.7420   111.5630 c3         1 I6S      -0.079400
      3 C12         34.5410    -3.8210   111.1830 c3         1 I6S      -0.089100
      4 C13         33.5010    -6.7020   115.0490 c          1 I6S       0.594100
      5 C16         35.7710    -7.9180   115.0740 ca         1 I6S      -0.018000
      6 C17         36.9220    -8.1010   114.2820 ca         1 I6S      -0.149000
      7 C18         37.9800    -8.9110   114.7270 ca         1 I6S      -0.084000
      8 C19         37.8980    -9.5480   115.9750 ca         1 I6S      -0.137000
      9 C20         36.7580    -9.3740   116.7750 ca         1 I6S      -0.084000
     10 C21         35.6980    -8.5630   116.3290 ca         1 I6S      -0.149000
     11 C22         28.5460    -5.4160   115.6360 cc         1 I6S      -0.016300
     12 C23         29.4630    -5.1360   116.8110 c3         1 I6S      -0.041800
     13 C24         27.1210    -5.4870   115.7270 cc         1 I6S      -0.270600
     14 C25         26.2380    -5.3510   116.9230 c          1 I6S       0.619700
     15 C27         24.7340    -5.5540   116.6510 c6         1 I6S      -0.175400
     16 C28         24.2630    -5.0720   115.2460 c6         1 I6S      -0.032000
     17 C29         22.7580    -5.4210   115.0450 c3         1 I6S      -0.088600
     18 C30         24.3950    -3.5210   115.1340 c3         1 I6S      -0.088600
     19 C01         25.1220    -5.7780   114.1540 c6         1 I6S      -0.017100
     20 C02         26.5960    -5.6970   114.4820 cd         1 I6S      -0.085300
     21 C04         28.8760    -5.6430   114.3060 cd         1 I6S      -0.265600
     22 C08         32.7170    -5.7460   114.1040 c3         1 I6S       0.035700
     23 C09         33.3380    -4.3200   114.1060 c3         1 I6S      -0.086400
     24 N03         27.6700    -5.7830   113.6050 na         1 I6S      -0.054000
     25 N07         31.2920    -5.6950   114.5060 ns         1 I6S      -0.474900
     26 O06         30.3410    -5.8690   112.4500 o          1 I6S      -0.629100
     27 O14         33.0420    -7.0770   116.1250 o          1 I6S      -0.577100
     28 H1          33.2130    -2.3520   113.2130 hc         1 I6S       0.042200
     29 H2          31.6980    -3.2300   113.1820 hc         1 I6S       0.042200
     30 H3          32.5640    -3.0010   110.9140 hc         1 I6S       0.044200
     31 H4          32.5690    -4.7020   111.3390 hc         1 I6S       0.044200
     32 H5          34.6490    -4.0050   110.1080 hc         1 I6S       0.031367
     33 H6          35.0530    -2.8810   111.4220 hc         1 I6S       0.031367
     34 H7          35.0420    -4.6370   111.7160 hc         1 I6S       0.031367
     35 H8          36.9990    -7.6120   113.3120 ha         1 I6S       0.126500
     36 H9          38.8630    -9.0440   114.1060 ha         1 I6S       0.112000
     37 H10         38.7160   -10.1750   116.3220 ha         1 I6S       0.114000
     38 H11         36.6940    -9.8670   117.7430 ha         1 I6S       0.112000
     39 H12         34.8340    -8.4520   116.9760 ha         1 I6S       0.126500
     40 H13         30.2640    -4.4430   116.5320 hc         1 I6S       0.052700
     41 H14         28.9540    -4.6490   117.6460 hc         1 I6S       0.052700
     42 H15         29.9140    -6.0610   117.1880 hc         1 I6S       0.052700
     43 H16         24.1460    -5.1280   117.4750 hc         1 I6S       0.068700
     44 H17         24.5840    -6.6410   116.6780 hc         1 I6S       0.068700
     45 H18         22.5830    -6.5010   115.1220 hc         1 I6S       0.039367
     46 H19         22.1290    -4.9330   115.7990 hc         1 I6S       0.039367
     47 H20         22.4010    -5.1010   114.0580 hc         1 I6S       0.039367
     48 H21         23.8050    -3.0130   115.9070 hc         1 I6S       0.039367
     49 H22         25.4340    -3.1880   115.2470 hc         1 I6S       0.039367
     50 H23         24.0430    -3.1590   114.1610 hc         1 I6S       0.039367
     51 H24         24.9190    -5.3380   113.1680 hc         1 I6S       0.059700
     52 H25         24.8310    -6.8350   114.0780 hc         1 I6S       0.059700
     53 H26         32.7950    -6.1760   113.0970 h1         1 I6S       0.076700
     54 H27         34.4250    -4.3910   113.9810 hc         1 I6S       0.057200
     55 H28         33.1830    -3.8740   115.0970 hc         1 I6S       0.057200
     56 H29         27.5950    -5.9400   112.6030 hn         1 I6S       0.371000
     57 H30         31.0780    -5.6740   115.4930 hn         1 I6S       0.332500
     58 N15         34.7440    -7.0830   114.5540 ns         1 I6S      -0.138000
     59 C05         30.2140    -5.7350   113.6580 c          1 I6S       0.642700
     60 O26         26.6240    -5.0900   118.0550 o          1 I6S      -0.545100
     61 H31         34.9640    -6.6870   113.6490 hn         1 I6S       0.151000
@<TRIPOS>BOND
     1     1     2 1   
     2     1    23 1   
     3     1    28 1   
     4     1    29 1   
     5     2     3 1   
     6     2    30 1   
     7     2    31 1   
     8     3    32 1   
     9     3    33 1   
    10     3    34 1   
    11     4    22 1   
    12     4    27 2   
    13     4    58 1   
    14     5     6 ar  
    15     5    10 ar  
    16     5    58 1   
    17     6     7 ar  
    18     6    35 1   
    19     7     8 ar  
    20     7    36 1   
    21     8     9 ar  
    22     8    37 1   
    23     9    10 ar  
    24     9    38 1   
    25    10    39 1   
    26    11    12 1   
    27    11    13 1   
    28    11    21 2   
    29    12    40 1   
    30    12    41 1   
    31    12    42 1   
    32    13    14 1   
    33    13    20 2   
    34    14    15 1   
    35    14    60 2   
    36    15    16 1   
    37    15    43 1   
    38    15    44 1   
    39    16    17 1   
    40    16    18 1   
    41    16    19 1   
    42    17    45 1   
    43    17    46 1   
    44    17    47 1   
    45    18    48 1   
    46    18    49 1   
    47    18    50 1   
    48    19    20 1   
    49    19    51 1   
    50    19    52 1   
    51    20    24 1   
    52    21    24 1   
    53    21    59 1   
    54    22    23 1   
    55    22    25 1   
    56    22    53 1   
    57    23    54 1   
    58    23    55 1   
    59    24    56 1   
    60    25    57 1   
    61    25    59 1   
    62    26    59 2   
    63    58    61 1   
@<TRIPOS>SUBSTRUCTURE
     1 I6S         1 TEMP              0 ****  ****    0 ROOT
