@<TRIPOS>MOLECULE
I6T
   72    77     1     0     0
SMALL
bcc


@<TRIPOS>ATOM
      1 N3          23.0160     5.5180   -22.3790 nb         1 I6T      -0.748000
      2 C4          24.2830     5.3840   -22.0430 ca         1 I6T       0.920300
      3 C2          22.4750     4.4650   -22.9950 ca         1 I6T       0.499600
      4 C1          23.1500     3.2830   -23.2450 ca         1 I6T      -0.384900
      5 C6          24.4860     3.2410   -22.7770 ca         1 I6T       0.743200
      6 C7          22.5000     2.2180   -24.0840 c6         1 I6T      -0.003100
      7 C8          21.3300     2.7720   -24.8820 c6         1 I6T       0.193800
      8 C01         27.1360     0.2410   -19.5690 c          1 I6T       0.587900
      9 C02         26.6910     0.6160   -20.9540 c6         1 I6T      -0.181700
     10 C10         21.0760     4.6920   -23.4870 c6         1 I6T       0.136500
     11 C13         26.7400     2.3200   -22.7740 c6         1 I6T       0.214800
     12 C14         27.1820     2.0100   -21.3500 c6         1 I6T      -0.092400
     13 C16         25.1950     0.4640   -21.1890 c6         1 I6T       0.134100
     14 C17         24.8670     0.8150   -22.6430 c6         1 I6T       0.167800
     15 C19         26.1690     6.4640   -21.0750 c3         1 I6T       0.165400
     16 C20         26.4730     7.8220   -20.4710 c5         1 I6T       0.180500
     17 C22         25.7280    10.0380   -20.8040 c5         1 I6T       0.174800
     18 C23         24.7470     9.4100   -19.8290 c5         1 I6T      -0.082400
     19 C24         25.5440     8.2170   -19.3030 c5         1 I6T      -0.078400
     20 C26         19.1050     3.6140   -24.2940 ca         1 I6T       0.158600
     21 C27         18.7000     3.6630   -25.6090 ca         1 I6T      -0.182000
     22 C28         17.3610     3.8880   -25.9660 ca         1 I6T      -0.100000
     23 C29         16.4300     4.1190   -24.9980 ca         1 I6T      -0.137000
     24 C30         16.7860     4.0570   -23.6310 ca         1 I6T      -0.022000
     25 C31         18.1260     3.7360   -23.2500 ca         1 I6T      -0.028000
     26 C32         15.7930     4.2920   -22.6530 ca         1 I6T      -0.124000
     27 C33         16.0820     4.1820   -21.3250 ca         1 I6T      -0.113000
     28 C34         17.3650     3.7780   -20.9270 ca         1 I6T      -0.133000
     29 C35         18.3480     3.5440   -21.8540 ca         1 I6T       0.056400
     30 N12         25.3050     2.1620   -22.9660 nh         1 I6T      -0.758300
     31 N21         26.3190     8.8880   -21.4580 n3         1 I6T      -0.731600
     32 N5          25.0350     4.3150   -22.2070 nb         1 I6T      -0.859000
     33 N9          20.4570     3.4780   -23.9690 nh         1 I6T      -0.650000
     34 O01         24.5350     1.3320   -20.2990 oh         1 I6T      -0.581800
     35 O02         26.5070    -0.4290   -18.7910 o          1 I6T      -0.505100
     36 O11         24.8060     6.4630   -21.4740 os         1 I6T      -0.399100
     37 CL1         19.8280     2.9010   -21.2020 cl         1 I6T      -0.099400
     38 H1          23.2310     1.7800   -24.7700 hc         1 I6T       0.050200
     39 H2          22.1180     1.4010   -23.4670 hc         1 I6T       0.050200
     40 H4          20.7860     1.9450   -25.3370 h1         1 I6T       0.040200
     41 H5          21.6930     3.4150   -25.6990 h1         1 I6T       0.040200
     42 H7          28.1470     0.6100   -19.3080 h4         1 I6T      -0.016800
     43 H8          27.2030    -0.1050   -21.6110 hc         1 I6T       0.066700
     44 H9          20.4920     5.1340   -22.6790 h1         1 I6T       0.067700
     45 H10         21.1260     5.4560   -24.2820 h1         1 I6T       0.067700
     46 H11         27.0410     3.3230   -23.0650 h1         1 I6T       0.058200
     47 H12         27.2300     1.6210   -23.4610 h1         1 I6T       0.058200
     48 H13         26.7960     2.7690   -20.6670 hc         1 I6T       0.061700
     49 H14         28.2720     2.0500   -21.2950 hc         1 I6T       0.061700
     50 H15         24.9000    -0.5810   -21.0270 h1         1 I6T       0.049700
     51 H16         25.3640     0.1060   -23.3110 h1         1 I6T       0.062700
     52 H17         23.7990     0.6980   -22.8000 h1         1 I6T       0.062700
     53 H18         26.8200     6.2710   -21.9330 h1         1 I6T       0.045200
     54 H19         26.3570     5.6770   -20.3380 h1         1 I6T       0.045200
     55 H20         27.5110     7.7650   -20.1070 h1         1 I6T       0.035700
     56 H21         25.2520    10.6980   -21.5340 h1         1 I6T       0.032700
     57 H22         26.4730    10.6410   -20.2570 h1         1 I6T       0.032700
     58 H23         24.4360    10.0960   -19.0410 hc         1 I6T       0.058200
     59 H24         23.8520     9.0790   -20.3590 hc         1 I6T       0.058200
     60 H25         24.9120     7.3960   -18.9650 hc         1 I6T       0.048200
     61 H26         26.1480     8.5240   -18.4470 hc         1 I6T       0.048200
     62 H27         27.2790     9.9210   -22.9920 h1         1 I6T       0.026700
     63 H28         28.3320     9.5660   -21.6130 h1         1 I6T       0.026700
     64 H29         27.8580     8.2820   -22.7370 h1         1 I6T       0.026700
     65 H30         19.4370     3.5660   -26.3950 ha         1 I6T       0.133000
     66 H31         17.0870     3.9200   -27.0130 ha         1 I6T       0.133000
     67 H32         15.4030     4.3450   -25.2560 ha         1 I6T       0.134000
     68 H33         14.7960     4.5560   -22.9820 ha         1 I6T       0.135000
     69 H34         15.3260     4.3700   -20.5740 ha         1 I6T       0.137000
     70 H35         17.5750     3.6250   -19.8770 ha         1 I6T       0.146000
     71 H37         23.5850     1.2080   -20.3940 ho         1 I6T       0.410000
     72 C25         27.5020     9.1780   -22.2250 c3         1 I6T       0.166100
@<TRIPOS>BOND
     1     1     2 ar  
     2     1     3 ar  
     3     2    32 ar  
     4     2    36 1   
     5     3     4 ar  
     6     3    10 1   
     7     4     5 ar  
     8     4     6 1   
     9     5    30 1   
    10     5    32 ar  
    11     6     7 1   
    12     6    38 1   
    13     6    39 1   
    14     7    33 1   
    15     7    40 1   
    16     7    41 1   
    17     8     9 1   
    18     8    35 2   
    19     8    42 1   
    20     9    12 1   
    21     9    13 1   
    22     9    43 1   
    23    10    33 1   
    24    10    44 1   
    25    10    45 1   
    26    11    12 1   
    27    11    30 1   
    28    11    46 1   
    29    11    47 1   
    30    12    48 1   
    31    12    49 1   
    32    13    14 1   
    33    13    34 1   
    34    13    50 1   
    35    14    30 1   
    36    14    51 1   
    37    14    52 1   
    38    15    16 1   
    39    15    36 1   
    40    15    53 1   
    41    15    54 1   
    42    16    19 1   
    43    16    31 1   
    44    16    55 1   
    45    17    18 1   
    46    17    31 1   
    47    17    56 1   
    48    17    57 1   
    49    18    19 1   
    50    18    58 1   
    51    18    59 1   
    52    19    60 1   
    53    19    61 1   
    54    20    21 ar  
    55    20    25 ar  
    56    20    33 1   
    57    21    22 ar  
    58    21    65 1   
    59    22    23 ar  
    60    22    66 1   
    61    23    24 ar  
    62    23    67 1   
    63    24    25 ar  
    64    24    26 ar  
    65    25    29 ar  
    66    26    27 ar  
    67    26    68 1   
    68    27    28 ar  
    69    27    69 1   
    70    28    29 ar  
    71    28    70 1   
    72    29    37 1   
    73    31    72 1   
    74    34    71 1   
    75    62    72 1   
    76    63    72 1   
    77    64    72 1   
@<TRIPOS>SUBSTRUCTURE
     1 I6T         1 TEMP              0 ****  ****    0 ROOT
