@<TRIPOS>MOLECULE
I6T
   72    77     1     0     0
SMALL
No Charge or Current Charge


@<TRIPOS>ATOM
      1 N3          22.9660     5.6780   -22.5740 nb         1 I6T      -0.222000
      2 C4          24.1990     5.4670   -22.0730 ca         1 I6T       0.394300
      3 C2          22.3340     4.6270   -23.1290 ca         1 I6T       0.171300
      4 C1          22.9350     3.3560   -23.1920 ca         1 I6T      -0.254300
      5 C6          24.2190     3.2350   -22.6390 ca         1 I6T       0.414900
      6 C7          22.1830     2.1840   -23.8410 c6         1 I6T      -0.003100
      7 C8          21.0430     2.6520   -24.7790 c6         1 I6T       0.193800
      8 C01         27.7110     0.6430   -19.5300 c          1 I6T       0.587900
      9 C02         26.8380     0.6580   -20.7940 c6         1 I6T      -0.181700
     10 C10         20.9280     4.8970   -23.6980 c6         1 I6T       0.136500
     11 C13         26.3470     1.9220   -23.0010 c6         1 I6T       0.214800
     12 C14         27.2720     1.8110   -21.7610 c6         1 I6T      -0.092400
     13 C16         25.3460     0.8740   -20.4140 c6         1 I6T       0.157300
     14 C17         24.4660     0.9160   -21.7000 c6         1 I6T       0.167800
     15 C19         26.1500     6.4660   -20.9510 c3         1 I6T       0.188600
     16 C20         26.6020     7.8580   -20.4030 c5         1 I6T       0.180500
     17 C22         26.9670    10.1510   -20.4920 c5         1 I6T       0.174800
     18 C23         26.0840     9.9410   -19.2290 c5         1 I6T      -0.082400
     19 C24         25.6920     8.4310   -19.2800 c5         1 I6T      -0.078400
     20 C26         18.8240     3.7780   -24.4660 ca         1 I6T       0.297000
     21 C27         18.5640     4.1570   -25.7970 ca         1 I6T      -0.164000
     22 C28         17.2570     4.3190   -26.2670 ca         1 I6T      -0.082000
     23 C29         16.1830     4.1040   -25.4000 ca         1 I6T      -0.119000
     24 C30         16.4110     3.7250   -24.0650 ca         1 I6T      -0.022000
     25 C31         17.7350     3.5510   -23.5640 ca         1 I6T      -0.028000
     26 C32         15.2890     3.5230   -23.2400 ca         1 I6T      -0.106000
     27 C33         15.4490     3.1430   -21.9050 ca         1 I6T      -0.095000
     28 C34         16.7370     2.9600   -21.3910 ca         1 I6T      -0.115000
     29 C35         17.8760     3.1550   -22.1930 ca         1 I6T       0.148000
     30 N12         24.9150     2.0150   -22.6030 nh         1 I6T      -0.758300
     31 N21         26.5920     9.0070   -21.3500 n3         1 I6T      -0.731600
     32 N5          24.8470     4.2820   -22.0820 nb         1 I6T      -0.333000
     33 N9          20.1850     3.6660   -24.1100 nh         1 I6T      -0.788400
     34 O01         25.1930     2.1050   -19.6990 oh         1 I6T      -0.644000
     35 O02         28.3770    -0.3320   -19.2000 o          1 I6T      -0.505100
     36 O11         24.8190     6.5600   -21.5100 os         1 I6T      -0.422300
     37 Cl1         19.4100     2.8580   -21.3600 cl         1 I6T      -0.191000
     38 H1          22.8750     1.5490   -24.4090 hc         1 I6T       0.050200
     39 H2          21.7550     1.5500   -23.0530 hc         1 I6T       0.050200
     40 H4          20.4450     1.7790   -25.0780 h1         1 I6T       0.040200
     41 H5          21.4830     3.0800   -25.6930 h1         1 I6T       0.040200
     42 H7          27.7260     1.5760   -18.9230 h4         1 I6T      -0.016800
     43 H8          26.9530    -0.3130   -21.2950 hc         1 I6T       0.066700
     44 H9          20.3500     5.4360   -22.9330 h1         1 I6T       0.067700
     45 H10         21.0320     5.5750   -24.5580 h1         1 I6T       0.067700
     46 H11         26.6410     2.7960   -23.6020 h1         1 I6T       0.058200
     47 H12         26.4930     1.0410   -23.6430 h1         1 I6T       0.058200
     48 H13         27.2860     2.7740   -21.2330 hc         1 I6T       0.061700
     49 H14         28.3040     1.6420   -22.1000 hc         1 I6T       0.061700
     50 H15         25.0120     0.0330   -19.7880 h1         1 I6T       0.049700
     51 H16         24.5280    -0.0510   -22.2200 h1         1 I6T       0.062700
     52 H17         23.4140     1.0530   -21.4110 h1         1 I6T       0.062700
     53 H18         26.8680     6.1340   -21.7120 h1         1 I6T       0.045200
     54 H19         26.1720     5.7410   -20.1260 h1         1 I6T       0.045200
     55 H20         27.6190     7.7160   -20.0080 h1         1 I6T       0.035700
     56 H21         26.7730    11.1190   -20.9750 h1         1 I6T       0.032700
     57 H22         28.0340    10.1130   -20.2280 h1         1 I6T       0.032700
     58 H23         26.6330    10.1970   -18.3160 hc         1 I6T       0.058200
     59 H24         25.1920    10.5780   -19.2570 hc         1 I6T       0.058200
     60 H25         24.6300     8.3180   -19.5260 hc         1 I6T       0.048200
     61 H26         25.8540     7.9250   -18.3210 hc         1 I6T       0.048200
     62 H27         27.3690     9.7630   -23.1810 h1         1 I6T       0.026700
     63 H28         28.4660     8.6650   -22.3090 h1         1 I6T       0.026700
     64 H29         27.0540     8.0160   -23.1800 h1         1 I6T       0.026700
     65 H30         19.3930     4.3360   -26.4770 ha         1 I6T       0.115000
     66 H31         17.0770     4.6130   -27.2990 ha         1 I6T       0.115000
     67 H32         15.1680     4.2320   -25.7690 ha         1 I6T       0.116000
     68 H33         14.2850     3.6620   -23.6360 ha         1 I6T       0.117000
     69 H34         14.5790     2.9880   -21.2710 ha         1 I6T       0.119000
     70 H35         16.8580     2.6610   -20.3530 ha         1 I6T       0.128000
     71 H37         25.1320     2.7840   -20.4100 ho         1 I6T       0.449000
     72 C25         27.4150     8.8530   -22.5680 c3         1 I6T       0.166100
@<TRIPOS>BOND
     1     1     2 ar  
     2     1     3 ar  
     3     2    32 ar  
     4     2    36 1   
     5     3     4 ar  
     6     3    10 1   
     7     4     5 ar  
     8     4     6 1   
     9     5    30 1   
    10     5    32 ar  
    11     6     7 1   
    12     6    38 1   
    13     6    39 1   
    14     7    33 1   
    15     7    40 1   
    16     7    41 1   
    17     8     9 1   
    18     8    35 2   
    19     8    42 1   
    20     9    12 1   
    21     9    13 1   
    22     9    43 1   
    23    10    33 1   
    24    10    44 1   
    25    10    45 1   
    26    11    12 1   
    27    11    30 1   
    28    11    46 1   
    29    11    47 1   
    30    12    48 1   
    31    12    49 1   
    32    13    14 1   
    33    13    34 1   
    34    13    50 1   
    35    14    30 1   
    36    14    51 1   
    37    14    52 1   
    38    15    16 1   
    39    15    36 1   
    40    15    53 1   
    41    15    54 1   
    42    16    19 1   
    43    16    31 1   
    44    16    55 1   
    45    17    18 1   
    46    17    31 1   
    47    17    56 1   
    48    17    57 1   
    49    18    19 1   
    50    18    58 1   
    51    18    59 1   
    52    19    60 1   
    53    19    61 1   
    54    20    21 ar  
    55    20    25 ar  
    56    20    33 1   
    57    21    22 ar  
    58    21    65 1   
    59    22    23 ar  
    60    22    66 1   
    61    23    24 ar  
    62    23    67 1   
    63    24    25 ar  
    64    24    26 ar  
    65    25    29 ar  
    66    26    27 ar  
    67    26    68 1   
    68    27    28 ar  
    69    27    69 1   
    70    28    29 ar  
    71    28    70 1   
    72    29    37 1   
    73    31    72 1   
    74    34    71 1   
    75    62    72 1   
    76    63    72 1   
    77    64    72 1   
@<TRIPOS>SUBSTRUCTURE
     1 I6T         1 TEMP              0 ****  ****    0 ROOT
