@<TRIPOS>MOLECULE
I6U
   48    51     1     0     0
SMALL
abcg2


@<TRIPOS>ATOM
      1 N           -4.6400     9.5280    10.5110 n          1 I6U      -0.401800
      2 C           -3.9170     9.1640    11.5840 c          1 I6U       0.566000
      3 O           -2.9180     9.7560    11.9630 o          1 I6U      -0.560000
      4 O3          -7.2780     5.8880    12.4890 o          1 I6U      -0.610100
      5 C11         -6.1180     6.2390    12.6280 c          1 I6U       0.671100
      6 N2          -5.2140     5.5310    13.3870 ns         1 I6U      -0.159000
      7 C12         -5.4460     4.4080    14.1660 ca         1 I6U       0.055000
      8 C17         -4.3290     3.8720    14.8260 ca         1 I6U      -0.184000
      9 C16         -4.4470     2.7800    15.6550 ca         1 I6U       0.025000
     10 C15         -5.6930     2.1910    15.8380 ca         1 I6U      -0.315500
     11 S           -5.8530     0.8370    16.9520 sy         1 I6U       1.132600
     12 O2          -7.2740     0.5600    17.1200 o          1 I6U      -0.547000
     13 N3          -5.0560    -0.3600    16.1300 n8         1 I6U      -1.002100
     14 O1          -5.0580     1.0890    18.1450 o          1 I6U      -0.547000
     15 C14         -6.8040     2.6980    15.1860 ca         1 I6U       0.025000
     16 C13         -6.6900     3.7980    14.3510 ca         1 I6U      -0.184000
     17 N1          -5.6170     7.3600    12.0320 n          1 I6U      -0.425800
     18 C18         -4.3210     7.9180    12.3550 c6         1 I6U       0.009000
     19 C10         -6.5180     8.2150    11.2960 c6         1 I6U       0.091000
     20 C9          -5.8080     8.7740    10.0730 c6         1 I6U       0.156000
     21 C8          -6.7750     9.6220     9.2770 ca         1 I6U      -0.103300
     22 C3          -6.6260    11.0000     9.1380 ca         1 I6U      -0.061300
     23 C2          -5.4040    11.6730     9.6900 c6         1 I6U      -0.053100
     24 C1          -4.2550    10.6850     9.7240 c6         1 I6U       0.098000
     25 C7          -7.8620     8.9860     8.6780 ca         1 I6U      -0.101000
     26 C6          -8.8140     9.7090     7.9810 ca         1 I6U      -0.107000
     27 C5          -8.6820    11.0880     7.8660 ca         1 I6U      -0.098000
     28 C4          -7.5890    11.7200     8.4330 ca         1 I6U      -0.106000
     29 H1          -4.2560     5.8440    13.4020 hn         1 I6U       0.157000
     30 H2          -3.3540     4.3270    14.6920 ha         1 I6U       0.135500
     31 H3          -3.5670     2.3950    16.1540 ha         1 I6U       0.137500
     32 H4          -4.8180    -1.1350    16.7420 hn         1 I6U       0.471000
     33 H5          -5.5770    -0.6960    15.3260 hn         1 I6U       0.471000
     34 H6          -7.7770     2.2460    15.3200 ha         1 I6U       0.137500
     35 H7          -7.5710     4.1710    13.8580 ha         1 I6U       0.135500
     36 H8          -3.5240     7.1990    12.1380 h1         1 I6U       0.069700
     37 H9          -4.2470     8.1780    13.4150 h1         1 I6U       0.069700
     38 H10         -6.8770     9.0450    11.9170 h1         1 I6U       0.076200
     39 H11         -7.3810     7.6360    10.9850 h1         1 I6U       0.076200
     40 H12         -5.4870     7.9330     9.4450 h1         1 I6U       0.069700
     41 H13         -5.1340    12.5300     9.0700 hc         1 I6U       0.063700
     42 H14         -5.5860    12.0590    10.6970 hc         1 I6U       0.063700
     43 H15         -4.0040    10.3630     8.7090 h1         1 I6U       0.067700
     44 H16         -3.3640    11.1290    10.1590 h1         1 I6U       0.067700
     45 H17         -7.9630     7.9090     8.7550 ha         1 I6U       0.117000
     46 H18         -9.6530     9.1990     7.5250 ha         1 I6U       0.119000
     47 H19         -9.4200    11.6640     7.3220 ha         1 I6U       0.118000
     48 H20         -7.4670    12.7910     8.3210 ha         1 I6U       0.115000
@<TRIPOS>BOND
     1     1     2 1   
     2     1    20 1   
     3     1    24 1   
     4     2     3 2   
     5     2    18 1   
     6     4     5 2   
     7     5     6 1   
     8     5    17 1   
     9     6     7 1   
    10     6    29 1   
    11     7     8 ar  
    12     7    16 ar  
    13     8     9 ar  
    14     8    30 1   
    15     9    10 ar  
    16     9    31 1   
    17    10    11 1   
    18    10    15 ar  
    19    11    12 2   
    20    11    13 1   
    21    11    14 2   
    22    13    32 1   
    23    13    33 1   
    24    15    16 ar  
    25    15    34 1   
    26    16    35 1   
    27    17    18 1   
    28    17    19 1   
    29    18    36 1   
    30    18    37 1   
    31    19    20 1   
    32    19    38 1   
    33    19    39 1   
    34    20    21 1   
    35    20    40 1   
    36    21    22 ar  
    37    21    25 ar  
    38    22    23 1   
    39    22    28 ar  
    40    23    24 1   
    41    23    41 1   
    42    23    42 1   
    43    24    43 1   
    44    24    44 1   
    45    25    26 ar  
    46    25    45 1   
    47    26    27 ar  
    48    26    46 1   
    49    27    28 ar  
    50    27    47 1   
    51    28    48 1   
@<TRIPOS>SUBSTRUCTURE
     1 I6U         1 TEMP              0 ****  ****    0 ROOT
