@<TRIPOS>MOLECULE
I6U
   48    51     1     0     0
SMALL
No Charge or Current Charge


@<TRIPOS>ATOM
      1 N           -4.7400     9.6810    10.7080 n          1 I6U      -0.401800
      2 C           -3.7500     8.9500    11.3780 c          1 I6U       0.566000
      3 O           -2.6540     9.4310    11.6350 o          1 I6U      -0.560000
      4 O3          -7.3640     5.9200    12.6670 o          1 I6U      -0.610100
      5 C11         -6.1590     6.1350    12.6560 c          1 I6U       0.671100
      6 N2          -5.2350     5.4000    13.3840 ns         1 I6U      -0.159000
      7 C12         -5.3730     4.3220    14.2980 ca         1 I6U       0.055000
      8 C17         -4.1950     3.7080    14.7610 ca         1 I6U      -0.184000
      9 C16         -4.2460     2.6380    15.6690 ca         1 I6U       0.025000
     10 C15         -5.4910     2.1680    16.1300 ca         1 I6U      -0.315500
     11 S           -5.5580     0.8040    17.2880 sy         1 I6U       1.132600
     12 O2          -6.8780     0.7380    17.9080 o          1 I6U      -0.547000
     13 N3          -5.5350    -0.4800    16.2780 n8         1 I6U      -1.002100
     14 O1          -4.3120     0.7140    18.0500 o          1 I6U      -0.547000
     15 C14         -6.6770     2.7780    15.6790 ca         1 I6U       0.025000
     16 C13         -6.6170     3.8490    14.7690 ca         1 I6U      -0.184000
     17 N1          -5.6180     7.1710    11.8600 n          1 I6U      -0.425800
     18 C18         -4.1500     7.5380    11.8790 c6         1 I6U       0.009000
     19 C10         -6.5200     8.0160    11.0120 c6         1 I6U       0.091000
     20 C9          -5.7750     8.9020     9.9840 c6         1 I6U       0.156000
     21 C8          -6.7620     9.7170     9.1230 ca         1 I6U      -0.103300
     22 C3          -6.7860    11.1260     9.1710 ca         1 I6U      -0.061300
     23 C2          -5.8100    11.8640    10.0730 c6         1 I6U      -0.053100
     24 C1          -4.5010    11.0740    10.2540 c6         1 I6U       0.098000
     25 C7          -7.6560     9.0430     8.2650 ca         1 I6U      -0.101000
     26 C6          -8.5720     9.7640     7.4810 ca         1 I6U      -0.107000
     27 C5          -8.6020    11.1660     7.5450 ca         1 I6U      -0.098000
     28 C4          -7.7090    11.8460     8.3880 ca         1 I6U      -0.106000
     29 H1          -4.2770     5.6860    13.2380 hn         1 I6U       0.157000
     30 H2          -3.2260     4.0600    14.4130 ha         1 I6U       0.135500
     31 H3          -3.3190     2.1780    16.0090 ha         1 I6U       0.137500
     32 H4          -6.3570    -0.9880    16.5970 hn         1 I6U       0.471000
     33 H5          -5.8310    -0.0650    15.3990 hn         1 I6U       0.471000
     34 H6          -7.6490     2.4320    16.0290 ha         1 I6U       0.137500
     35 H7          -7.5500     4.3000    14.4510 ha         1 I6U       0.135500
     36 H8          -3.5970     6.8210    11.2570 h1         1 I6U       0.069700
     37 H9          -3.7630     7.4720    12.9050 h1         1 I6U       0.069700
     38 H10         -7.1170     8.6640    11.6690 h1         1 I6U       0.076200
     39 H11         -7.2240     7.3630    10.4770 h1         1 I6U       0.076200
     40 H12         -5.2480     8.2260     9.2940 h1         1 I6U       0.069700
     41 H13         -5.5820    12.8570     9.6640 hc         1 I6U       0.063700
     42 H14         -6.2760    12.0270    11.0530 hc         1 I6U       0.063700
     43 H15         -3.9570    11.0470     9.2990 h1         1 I6U       0.067700
     44 H16         -3.8650    11.6020    10.9800 h1         1 I6U       0.067700
     45 H17         -7.6430     7.9570     8.2030 ha         1 I6U       0.117000
     46 H18         -9.2600     9.2350     6.8240 ha         1 I6U       0.119000
     47 H19         -9.3120    11.7240     6.9390 ha         1 I6U       0.118000
     48 H20         -7.7320    12.9330     8.4300 ha         1 I6U       0.115000
@<TRIPOS>BOND
     1     1     2 1   
     2     1    20 1   
     3     1    24 1   
     4     2     3 2   
     5     2    18 1   
     6     4     5 2   
     7     5     6 1   
     8     5    17 1   
     9     6     7 1   
    10     6    29 1   
    11     7     8 ar  
    12     7    16 ar  
    13     8     9 ar  
    14     8    30 1   
    15     9    10 ar  
    16     9    31 1   
    17    10    11 1   
    18    10    15 ar  
    19    11    12 2   
    20    11    13 1   
    21    11    14 2   
    22    13    32 1   
    23    13    33 1   
    24    15    16 ar  
    25    15    34 1   
    26    16    35 1   
    27    17    18 1   
    28    17    19 1   
    29    18    36 1   
    30    18    37 1   
    31    19    20 1   
    32    19    38 1   
    33    19    39 1   
    34    20    21 1   
    35    20    40 1   
    36    21    22 ar  
    37    21    25 ar  
    38    22    23 1   
    39    22    28 ar  
    40    23    24 1   
    41    23    41 1   
    42    23    42 1   
    43    24    43 1   
    44    24    44 1   
    45    25    26 ar  
    46    25    45 1   
    47    26    27 ar  
    48    26    46 1   
    49    27    28 ar  
    50    27    47 1   
    51    28    48 1   
@<TRIPOS>SUBSTRUCTURE
     1 I6U         1 TEMP              0 ****  ****    0 ROOT
