@<TRIPOS>MOLECULE
I6W
   31    32     1     0     0
SMALL
No Charge or Current Charge


@<TRIPOS>ATOM
      1 C05         14.6710    14.4400    24.6420 ca         1 I6W      -0.130000
      2 C08         16.0800    14.6120    24.7040 cp         1 I6W       0.311000
      3 C09         16.8220    14.6850    26.0350 cp         1 I6W       0.309000
      4 N10         16.0950    14.5790    27.1810 nb         1 I6W      -0.685000
      5 C03         14.7990    14.4890    22.2340 ca         1 I6W      -0.247600
      6 C04         14.0190    14.3770    23.4000 ca         1 I6W      -0.025000
      7 C06         16.1830    14.6570    22.3610 ca         1 I6W       0.377900
      8 C11         16.7200    14.6390    28.3820 ca         1 I6W       0.392900
      9 C12         18.1090    14.8090    28.5130 ca         1 I6W      -0.189600
     10 C13         18.7490    14.8680    29.8670 c          1 I6W       0.614700
     11 C15         18.3430    14.7380    32.2610 c3         1 I6W       0.168600
     12 C16         18.9310    13.3440    32.5610 c3         1 I6W      -0.123100
     13 C18         18.8810    14.9190    27.3410 ca         1 I6W      -0.031000
     14 C19         18.2300    14.8570    26.1000 ca         1 I6W      -0.132000
     15 N07         16.8070    14.7170    23.5580 nb         1 I6W      -0.679000
     16 O01         12.9960    14.2900    20.6700 o          1 I6W      -0.508100
     17 O14         17.8550    14.7570    30.9040 os         1 I6W      -0.445100
     18 O17         19.9550    15.0140    30.0190 o          1 I6W      -0.486000
     19 H051        14.0880    14.3560    25.5540 ha         1 I6W       0.154000
     20 H1          14.9070    14.5330    20.0160 h4         1 I6W      -0.005800
     21 H041        12.9390    14.2450    23.3500 ha         1 I6W       0.141000
     22 H061        16.8200    14.7480    21.4810 h4         1 I6W       0.022100
     23 H111        16.0710    14.5470    29.2510 h4         1 I6W       0.038100
     24 H152        19.0970    15.5190    32.4310 h1         1 I6W       0.060700
     25 H151        17.5130    14.9220    32.9560 h1         1 I6W       0.060700
     26 H162        19.2280    13.2810    33.6150 hc         1 I6W       0.050033
     27 H163        18.1860    12.5630    32.3700 hc         1 I6W       0.050033
     28 H161        19.8160    13.1420    31.9480 hc         1 I6W       0.050033
     29 H181        19.9610    15.0510    27.3870 ha         1 I6W       0.144000
     30 H191        18.8130    14.9410    25.1870 ha         1 I6W       0.153000
     31 C02         14.1980    14.4340    20.8670 c          1 I6W       0.588500
@<TRIPOS>BOND
     1     1     2 ar  
     2     1     6 ar  
     3     1    19 1   
     4     2     3 1   
     5     2    15 ar  
     6     3     4 ar  
     7     3    14 ar  
     8     4     8 ar  
     9     5     6 ar  
    10     5     7 ar  
    11     5    31 1   
    12     6    21 1   
    13     7    15 ar  
    14     7    22 1   
    15     8     9 ar  
    16     8    23 1   
    17     9    10 1   
    18     9    13 ar  
    19    10    17 1   
    20    10    18 2   
    21    11    12 1   
    22    11    17 1   
    23    11    24 1   
    24    11    25 1   
    25    12    26 1   
    26    12    27 1   
    27    12    28 1   
    28    13    14 ar  
    29    13    29 1   
    30    14    30 1   
    31    16    31 2   
    32    20    31 1   
@<TRIPOS>SUBSTRUCTURE
     1 I6W         1 TEMP              0 ****  ****    0 ROOT
