@<TRIPOS>MOLECULE
I6W
   31    32     1     0     0
SMALL
abcg2


@<TRIPOS>ATOM
      1 C05         14.7070    14.3970    24.7020 ca         1 I6W      -0.130000
      2 C08         16.0890    14.5980    24.7410 cp         1 I6W       0.311000
      3 C09         16.8140    14.6510    26.0310 cp         1 I6W       0.309000
      4 N10         16.0830    14.5100    27.1340 nb         1 I6W      -0.685000
      5 C03         14.8420    14.5220    22.3220 ca         1 I6W      -0.247600
      6 C04         14.0780    14.3600    23.4760 ca         1 I6W      -0.025000
      7 C06         16.2120    14.7140    22.4680 ca         1 I6W       0.377900
      8 C11         16.6800    14.5580    28.3110 ca         1 I6W       0.392900
      9 C12         18.0520    14.7490    28.4600 ca         1 I6W      -0.189600
     10 C13         18.7220    14.8110    29.7840 c          1 I6W       0.614700
     11 C15         18.3700    14.7380    32.1310 c3         1 I6W       0.168600
     12 C16         18.9040    13.3950    32.5760 c3         1 I6W      -0.123100
     13 C18         18.8150    14.8900    27.3060 ca         1 I6W      -0.031000
     14 C19         18.1930    14.8420    26.0740 ca         1 I6W      -0.132000
     15 N07         16.8200    14.7530    23.6400 nb         1 I6W      -0.679000
     16 O01         13.0720    14.3320    20.7610 o          1 I6W      -0.508100
     17 O14         17.8670    14.7000    30.7850 os         1 I6W      -0.445100
     18 O17         19.9130    14.9560    29.9120 o          1 I6W      -0.486000
     19 H051        14.1490    14.2750    25.6190 ha         1 I6W       0.154000
     20 H1          14.9680    14.6340    20.1510 h4         1 I6W      -0.005800
     21 H041        13.0080    14.2070    23.4120 ha         1 I6W       0.141000
     22 H061        16.8390    14.8420    21.5910 h4         1 I6W       0.022100
     23 H111        16.0370    14.4380    29.1740 h4         1 I6W       0.038100
     24 H152        19.1250    15.5190    32.2270 h1         1 I6W       0.060700
     25 H151        17.5090    15.0270    32.7320 h1         1 I6W       0.060700
     26 H162        19.1820    13.4560    33.6290 hc         1 I6W       0.050033
     27 H163        18.1480    12.6160    32.4750 hc         1 I6W       0.050033
     28 H161        19.7890    13.0970    32.0150 hc         1 I6W       0.050033
     29 H181        19.8840    15.0390    27.3700 ha         1 I6W       0.144000
     30 H191        18.7610    14.9520    25.1610 ha         1 I6W       0.153000
     31 C02         14.2490    14.4940    20.9770 c          1 I6W       0.588500
@<TRIPOS>BOND
     1     1     2 ar  
     2     1     6 ar  
     3     1    19 1   
     4     2     3 1   
     5     2    15 ar  
     6     3     4 ar  
     7     3    14 ar  
     8     4     8 ar  
     9     5     6 ar  
    10     5     7 ar  
    11     5    31 1   
    12     6    21 1   
    13     7    15 ar  
    14     7    22 1   
    15     8     9 ar  
    16     8    23 1   
    17     9    10 1   
    18     9    13 ar  
    19    10    17 1   
    20    10    18 2   
    21    11    12 1   
    22    11    17 1   
    23    11    24 1   
    24    11    25 1   
    25    12    26 1   
    26    12    27 1   
    27    12    28 1   
    28    13    14 ar  
    29    13    29 1   
    30    14    30 1   
    31    16    31 2   
    32    20    31 1   
@<TRIPOS>SUBSTRUCTURE
     1 I6W         1 TEMP              0 ****  ****    0 ROOT
