@<TRIPOS>MOLECULE
I6X
   61    65     1     0     0
SMALL
No Charge or Current Charge


@<TRIPOS>ATOM
      1 C1           5.3820     2.8150     0.9550 c3         1 I6X      -0.111100
      2 C2           3.9940     3.1230     1.5480 c3         1 I6X       0.086000
      3 N3           2.8870     2.6020     0.7090 n          1 I6X      -0.268000
      4 C4           2.5340     1.2560     0.8050 cc         1 I6X      -0.008400
      5 C5           1.5070     0.6890     0.0650 cd         1 I6X      -0.188200
      6 C6           0.8030     1.5360    -0.8680 cd         1 I6X      -0.092000
      7 C7           1.1330     2.8730    -0.9780 cc         1 I6X      -0.209400
      8 C8           2.2210     3.4870    -0.1690 c          1 I6X       0.548200
      9 O9           2.5280     4.6710    -0.2590 o          1 I6X      -0.566000
     10 C10          0.4280     3.8140    -1.9310 c3         1 I6X      -0.030900
     11 C11          1.3020    -0.8260     0.2910 c5         1 I6X       0.300000
     12 C12          2.5400    -1.4920    -0.2770 ca         1 I6X      -0.056300
     13 C13          3.1040    -1.4620    -1.5630 ca         1 I6X      -0.100000
     14 C14          4.3020    -2.1750    -1.7820 ca         1 I6X      -0.070000
     15 C15          4.9140    -2.8830    -0.7200 ca         1 I6X      -0.157000
     16 C16          4.3370    -2.8710     0.5650 ca         1 I6X       0.211000
     17 C17          3.1440    -2.1620     0.7530 ca         1 I6X      -0.249900
     18 C18          2.3390    -1.8970     1.9470 ce         1 I6X       0.690800
     19 N19          1.3540    -1.0820     1.7820 n2         1 I6X      -0.683900
     20 N20          2.7760    -2.2960     3.1600 nv         1 I6X      -1.030200
     21 F21          4.9320    -3.5320     1.5830 f          1 I6X      -0.177000
     22 C22         -0.0560    -1.2180    -0.3260 ca         1 I6X      -0.059300
     23 C23         -0.1660    -2.1250    -1.4030 ca         1 I6X      -0.099000
     24 C24         -1.4230    -2.4540    -1.9350 ca         1 I6X      -0.115000
     25 C25         -2.5880    -1.8880    -1.3970 ca         1 I6X      -0.094000
     26 C26         -2.5230    -0.9860    -0.3080 cp         1 I6X      -0.040000
     27 C27         -1.2430    -0.6730     0.2140 ca         1 I6X      -0.065000
     28 C28         -3.7640    -0.3840     0.2750 cp         1 I6X      -0.083000
     29 C29         -4.8920    -0.0850    -0.5300 ca         1 I6X      -0.053000
     30 C30         -6.0340     0.4800     0.0620 ca         1 I6X      -0.014000
     31 C31         -6.0220     0.7340     1.4490 ca         1 I6X       0.355900
     32 N32         -4.9600     0.4590     2.2430 nb         1 I6X      -0.666000
     33 C33         -3.8640    -0.0840     1.6610 ca         1 I6X       0.349900
     34 C34         -7.1860     0.7950    -0.7340 cg         1 I6X      -0.133000
     35 C35         -8.1560     1.0600    -1.4150 c1         1 I6X      -0.107100
     36 C36         -9.3020     1.3700    -2.2750 c3         1 I6X      -0.008000
     37 H11C         6.1710     3.2070     1.6090 hc         1 I6X       0.046367
     38 H12C         5.5290     1.7340     0.8480 hc         1 I6X       0.046367
     39 H13C         5.4900     3.2800    -0.0320 hc         1 I6X       0.046367
     40 H21C         3.9250     2.6670     2.5440 h1         1 I6X       0.065200
     41 H22C         3.8930     4.2060     1.6920 h1         1 I6X       0.065200
     42 H4           3.1620     0.7270     1.5140 h4         1 I6X       0.217000
     43 H6           0.0140     1.1290    -1.4950 ha         1 I6X       0.185000
     44 H101        -0.0380     4.6460    -1.3890 hc         1 I6X       0.045033
     45 H102         1.1310     4.2350    -2.6600 hc         1 I6X       0.045033
     46 H103        -0.3620     3.3010    -2.4910 hc         1 I6X       0.045033
     47 H13          2.6300    -0.9040    -2.3670 ha         1 I6X       0.131000
     48 H14          4.7580    -2.1760    -2.7700 ha         1 I6X       0.122000
     49 H15          5.8380    -3.4280    -0.8900 ha         1 I6X       0.136000
     50 H201         3.4040    -3.0900     3.1550 hn         1 I6X       0.490000
     51 H202         2.0800    -2.2710     3.8950 hn         1 I6X       0.490000
     52 H23          0.7150    -2.5900    -1.8340 ha         1 I6X       0.116000
     53 H27         -1.1610     0.0250     1.0430 ha         1 I6X       0.129000
     54 H24         -1.4930    -3.1540    -2.7640 ha         1 I6X       0.114000
     55 H25         -3.5500    -2.1680    -1.8190 ha         1 I6X       0.115000
     56 H29         -4.8750    -0.2760    -1.6010 ha         1 I6X       0.126000
     57 H33         -3.0350    -0.3020     2.3330 h4         1 I6X       0.027100
     58 H31         -6.8900     1.1720     1.9410 h4         1 I6X       0.026100
     59 H361        -9.7930     2.2910    -1.9390 hc         1 I6X       0.055033
     60 H362        -8.9740     1.5080    -3.3120 hc         1 I6X       0.055033
     61 H363       -10.0340     0.5540    -2.2450 hc         1 I6X       0.055033
@<TRIPOS>BOND
     1     1     2 1   
     2     1    37 1   
     3     1    38 1   
     4     1    39 1   
     5     2     3 1   
     6     2    40 1   
     7     2    41 1   
     8     3     4 1   
     9     3     8 1   
    10     4     5 2   
    11     4    42 1   
    12     5     6 1   
    13     5    11 1   
    14     6     7 2   
    15     6    43 1   
    16     7     8 1   
    17     7    10 1   
    18     8     9 2   
    19    10    44 1   
    20    10    45 1   
    21    10    46 1   
    22    11    12 1   
    23    11    19 1   
    24    11    22 1   
    25    12    13 ar  
    26    12    17 ar  
    27    13    14 ar  
    28    13    47 1   
    29    14    15 ar  
    30    14    48 1   
    31    15    16 ar  
    32    15    49 1   
    33    16    17 ar  
    34    16    21 1   
    35    17    18 1   
    36    18    19 2   
    37    18    20 1   
    38    20    50 1   
    39    20    51 1   
    40    22    23 ar  
    41    22    27 ar  
    42    23    24 ar  
    43    23    52 1   
    44    24    25 ar  
    45    24    54 1   
    46    25    26 ar  
    47    25    55 1   
    48    26    27 ar  
    49    26    28 1   
    50    27    53 1   
    51    28    29 ar  
    52    28    33 ar  
    53    29    30 ar  
    54    29    56 1   
    55    30    31 ar  
    56    30    34 1   
    57    31    32 ar  
    58    31    58 1   
    59    32    33 ar  
    60    33    57 1   
    61    34    35 3   
    62    35    36 1   
    63    36    59 1   
    64    36    60 1   
    65    36    61 1   
@<TRIPOS>SUBSTRUCTURE
     1 I6X         1 TEMP              0 ****  ****    0 ROOT
