@<TRIPOS>MOLECULE
I6X
   61    65     1     0     0
SMALL
abcg2


@<TRIPOS>ATOM
      1 C1           4.4190     3.4460     1.9280 c3         1 I6X      -0.111100
      2 C2           2.9040     3.4190     2.0200 c3         1 I6X       0.086000
      3 N3           2.2990     2.6980     0.8990 n          1 I6X      -0.268000
      4 C4           2.1000     1.3600     1.0290 cc         1 I6X      -0.008400
      5 C5           1.5930     0.6060     0.0250 cd         1 I6X      -0.188200
      6 C6           1.2540     1.2760    -1.1790 cd         1 I6X      -0.092000
      7 C7           1.4520     2.6110    -1.3390 cc         1 I6X      -0.209400
      8 C8           2.0270     3.3940    -0.2650 c          1 I6X       0.548200
      9 O9           2.2580     4.5990    -0.3490 o          1 I6X      -0.566000
     10 C10          1.1030     3.3370    -2.5970 c3         1 I6X      -0.030900
     11 C11          1.4220    -0.8970     0.1630 c5         1 I6X       0.300000
     12 C12          2.5470    -1.5930    -0.5870 ca         1 I6X      -0.056300
     13 C13          2.9200    -1.5670    -1.9180 ca         1 I6X      -0.100000
     14 C14          4.0430    -2.2940    -2.3000 ca         1 I6X      -0.070000
     15 C15          4.7800    -3.0280    -1.3760 ca         1 I6X      -0.157000
     16 C16          4.3820    -3.0330    -0.0540 ca         1 I6X       0.211000
     17 C17          3.2670    -2.3240     0.3470 ca         1 I6X      -0.249900
     18 C18          2.5990    -2.1050     1.6400 ce         1 I6X       0.690800
     19 N19          1.5870    -1.3140     1.5480 n2         1 I6X      -0.683900
     20 N20          3.0380    -2.6370     2.7940 nv         1 I6X      -1.030200
     21 F21          5.0860    -3.7370     0.8430 f          1 I6X      -0.177000
     22 C22          0.0280    -1.3230    -0.2890 ca         1 I6X      -0.059300
     23 C23         -0.1930    -2.4120    -1.1220 ca         1 I6X      -0.099000
     24 C24         -1.4890    -2.7830    -1.4610 ca         1 I6X      -0.115000
     25 C25         -2.5730    -2.0760    -0.9720 ca         1 I6X      -0.094000
     26 C26         -2.3710    -0.9820    -0.1280 cp         1 I6X      -0.040000
     27 C27         -1.0680    -0.6210     0.2040 ca         1 I6X      -0.065000
     28 C28         -3.5160    -0.2190     0.4000 cp         1 I6X      -0.083000
     29 C29         -4.6470     0.0240    -0.3720 ca         1 I6X      -0.053000
     30 C30         -5.7080     0.7500     0.1650 ca         1 I6X      -0.014000
     31 C31         -5.5810     1.2130     1.4770 ca         1 I6X       0.355900
     32 N32         -4.5120     0.9850     2.2220 nb         1 I6X      -0.666000
     33 C33         -3.5120     0.2880     1.7000 ca         1 I6X       0.349900
     34 C34         -6.8830     1.0210    -0.5930 cg         1 I6X      -0.133000
     35 C35         -7.8810     1.2480    -1.2290 c1         1 I6X      -0.107100
     36 C36         -9.0820     1.5190    -1.9990 c3         1 I6X      -0.008000
     37 H11C         4.8330     3.9760     2.7850 hc         1 I6X       0.046367
     38 H12C         4.8300     2.4350     1.9290 hc         1 I6X       0.046367
     39 H13C         4.7530     3.9530     1.0240 hc         1 I6X       0.046367
     40 H21C         2.5840     2.9250     2.9370 h1         1 I6X       0.065200
     41 H22C         2.4990     4.4280     2.0400 h1         1 I6X       0.065200
     42 H4           2.3670     0.9350     1.9860 h4         1 I6X       0.217000
     43 H6           0.8080     0.7170    -1.9940 ha         1 I6X       0.185000
     44 H101         0.3920     4.1440    -2.4070 hc         1 I6X       0.045033
     45 H102         1.9830     3.7930    -3.0540 hc         1 I6X       0.045033
     46 H103         0.6570     2.6610    -3.3250 hc         1 I6X       0.045033
     47 H13          2.3630    -1.0070    -2.6570 ha         1 I6X       0.131000
     48 H14          4.3540    -2.2930    -3.3360 ha         1 I6X       0.122000
     49 H15          5.6550    -3.5850    -1.6840 ha         1 I6X       0.136000
     50 H201         3.6480    -3.4350     2.7820 hn         1 I6X       0.490000
     51 H202         2.4520    -2.5490     3.6070 hn         1 I6X       0.490000
     52 H23          0.6370    -2.9810    -1.5180 ha         1 I6X       0.116000
     53 H27         -0.9000     0.2370     0.8440 ha         1 I6X       0.129000
     54 H24         -1.6490    -3.6360    -2.1070 ha         1 I6X       0.114000
     55 H25         -3.5770    -2.3870    -1.2310 ha         1 I6X       0.115000
     56 H29         -4.7050    -0.3310    -1.3930 ha         1 I6X       0.126000
     57 H33         -2.6640     0.1060     2.3510 h4         1 I6X       0.027100
     58 H31         -6.3830     1.7860     1.9270 h4         1 I6X       0.026100
     59 H361        -9.5790     2.4210    -1.6440 hc         1 I6X       0.055033
     60 H362        -8.8450     1.6570    -3.0540 hc         1 I6X       0.055033
     61 H363        -9.7900     0.6930    -1.9200 hc         1 I6X       0.055033
@<TRIPOS>BOND
     1     1     2 1   
     2     1    37 1   
     3     1    38 1   
     4     1    39 1   
     5     2     3 1   
     6     2    40 1   
     7     2    41 1   
     8     3     4 1   
     9     3     8 1   
    10     4     5 2   
    11     4    42 1   
    12     5     6 1   
    13     5    11 1   
    14     6     7 2   
    15     6    43 1   
    16     7     8 1   
    17     7    10 1   
    18     8     9 2   
    19    10    44 1   
    20    10    45 1   
    21    10    46 1   
    22    11    12 1   
    23    11    19 1   
    24    11    22 1   
    25    12    13 ar  
    26    12    17 ar  
    27    13    14 ar  
    28    13    47 1   
    29    14    15 ar  
    30    14    48 1   
    31    15    16 ar  
    32    15    49 1   
    33    16    17 ar  
    34    16    21 1   
    35    17    18 1   
    36    18    19 2   
    37    18    20 1   
    38    20    50 1   
    39    20    51 1   
    40    22    23 ar  
    41    22    27 ar  
    42    23    24 ar  
    43    23    52 1   
    44    24    25 ar  
    45    24    54 1   
    46    25    26 ar  
    47    25    55 1   
    48    26    27 ar  
    49    26    28 1   
    50    27    53 1   
    51    28    29 ar  
    52    28    33 ar  
    53    29    30 ar  
    54    29    56 1   
    55    30    31 ar  
    56    30    34 1   
    57    31    32 ar  
    58    31    58 1   
    59    32    33 ar  
    60    33    57 1   
    61    34    35 3   
    62    35    36 1   
    63    36    59 1   
    64    36    60 1   
    65    36    61 1   
@<TRIPOS>SUBSTRUCTURE
     1 I6X         1 TEMP              0 ****  ****    0 ROOT
