@<TRIPOS>MOLECULE
I6Y
   45    48     1     0     0
SMALL
bcc


@<TRIPOS>ATOM
      1 C1          14.0340     6.8420    65.5520 ca         1 I6Y       0.398200
      2 C2          15.3680     6.6290    65.2440 ca         1 I6Y      -0.245800
      3 C3          15.8010     5.3440    64.9140 cp         1 I6Y       0.021000
      4 C4          17.2090     5.0610    64.5840 cp         1 I6Y      -0.082000
      5 C5          17.9780     6.0190    63.8890 ca         1 I6Y      -0.096000
      6 C6          19.3000     5.7990    63.5670 ca         1 I6Y      -0.146000
      7 C8          19.1270     3.6090    64.6570 ca         1 I6Y      -0.103800
      8 C12         22.8390     5.8560    64.1370 c3         1 I6Y       0.148800
      9 C13         24.1090     7.9310    63.8630 c6         1 I6Y       0.171300
     10 C14         24.7360     8.1260    65.2360 c6         1 I6Y       0.119300
     11 C15         25.8660     6.0270    65.0070 c6         1 I6Y       0.119300
     12 C16         25.2230     5.8320    63.6390 c6         1 I6Y       0.171300
     13 C10         21.2150     2.8670    64.3540 cc         1 I6Y      -0.110100
     14 C17         17.7880     3.8570    64.9610 ca         1 I6Y      -0.056000
     15 C18         14.8310     4.3410    64.9200 ca         1 I6Y      -0.245800
     16 C19         13.5230     4.6590    65.2460 ca         1 I6Y       0.398200
     17 C7          19.8700     4.5880    63.9580 ca         1 I6Y      -0.042200
     18 C9          20.0150     2.5180    64.9000 cd         1 I6Y      -0.186200
     19 N1          21.1340     4.1060    63.7760 na         1 I6Y      -0.058400
     20 N2          23.9530     6.5310    63.5000 n3         1 I6Y      -0.735600
     21 N3          26.0230     7.4500    65.2640 n7         1 I6Y      -0.801200
     22 N4          13.1140     5.8840    65.5580 nb         1 I6Y      -0.667000
     23 H1          13.6970     7.8390    65.8130 h4         1 I6Y       0.016100
     24 H2          16.0590     7.4610    65.2840 ha         1 I6Y       0.140500
     25 H3          17.5150     6.9470    63.5780 ha         1 I6Y       0.131000
     26 H4          19.8650     6.5470    63.0260 ha         1 I6Y       0.136000
     27 H5          22.9810     4.1040    62.8660 h1         1 I6Y       0.065700
     28 H6          21.8820     5.3360    62.2750 h1         1 I6Y       0.065700
     29 H7          22.0750     6.5950    64.3890 h1         1 I6Y       0.043700
     30 H8          23.1030     5.3540    65.0780 h1         1 I6Y       0.043700
     31 H10         23.1380     8.4280    63.8120 h1         1 I6Y       0.058450
     32 H11         24.0440     7.7540    66.0100 h1         1 I6Y       0.035200
     33 H12         24.8840     9.1920    65.4250 h1         1 I6Y       0.035200
     34 H13         25.2570     5.5250    65.7770 h1         1 I6Y       0.035200
     35 H14         26.8470     5.5470    65.0170 h1         1 I6Y       0.035200
     36 H15         25.9080     6.2080    62.8720 h1         1 I6Y       0.058450
     37 H16         25.0810     4.7670    63.4410 h1         1 I6Y       0.058450
     38 H17         22.1430     2.3160    64.3220 h4         1 I6Y       0.161000
     39 H18         17.2170     3.1200    65.5130 ha         1 I6Y       0.135000
     40 H19         15.0790     3.3210    64.6550 ha         1 I6Y       0.140500
     41 H20         12.7670     3.8810    65.2460 h4         1 I6Y       0.016100
     42 H21         19.7910     1.5930    65.4070 ha         1 I6Y       0.157000
     43 H23         26.4590     7.5850    66.1660 hn         1 I6Y       0.356800
     44 C11         22.2320     4.8320    63.1770 c3         1 I6Y       0.044300
     45 H9          24.7530     8.4060    63.1150 h1         1 I6Y       0.058450
@<TRIPOS>BOND
     1     1     2 ar  
     2     1    22 ar  
     3     1    23 1   
     4     2     3 ar  
     5     2    24 1   
     6     3     4 1   
     7     3    15 ar  
     8     4     5 ar  
     9     4    14 ar  
    10     5     6 ar  
    11     5    25 1   
    12     6    17 ar  
    13     6    26 1   
    14     7    14 ar  
    15     7    17 ar  
    16     7    18 1   
    17     8    20 1   
    18     8    29 1   
    19     8    30 1   
    20     8    44 1   
    21     9    10 1   
    22     9    20 1   
    23     9    31 1   
    24     9    45 1   
    25    10    21 1   
    26    10    32 1   
    27    10    33 1   
    28    11    12 1   
    29    11    21 1   
    30    11    34 1   
    31    11    35 1   
    32    12    20 1   
    33    12    36 1   
    34    12    37 1   
    35    13    18 2   
    36    13    19 1   
    37    13    38 1   
    38    14    39 1   
    39    15    16 ar  
    40    15    40 1   
    41    16    22 ar  
    42    16    41 1   
    43    17    19 1   
    44    18    42 1   
    45    19    44 1   
    46    21    43 1   
    47    27    44 1   
    48    28    44 1   
@<TRIPOS>SUBSTRUCTURE
     1 I6Y         1 TEMP              0 ****  ****    0 ROOT
