@<TRIPOS>MOLECULE
I6Y
   45    48     1     0     0
SMALL
No Charge or Current Charge


@<TRIPOS>ATOM
      1 C1          13.7470     6.8050    65.0720 ca         1 I6Y       0.332900
      2 C2          15.1230     6.6160    64.8670 ca         1 I6Y      -0.162500
      3 C3          15.6590     5.3080    64.8050 cp         1 I6Y       0.021000
      4 C4          17.1210     5.0590    64.5890 cp         1 I6Y      -0.082000
      5 C5          17.9120     5.9520    63.8010 ca         1 I6Y      -0.078000
      6 C6          19.2900     5.7300    63.5890 ca         1 I6Y      -0.128000
      7 C8          19.1290     3.7390    64.9360 ca         1 I6Y      -0.103800
      8 C12         22.8200     6.0550    64.2100 c3         1 I6Y       0.148800
      9 C13         24.1920     8.1340    64.2060 c6         1 I6Y       0.171300
     10 C14         25.0810     7.8670    65.4700 c6         1 I6Y       0.119300
     11 C15         25.9900     5.8450    64.3740 c6         1 I6Y       0.119300
     12 C16         25.0920     6.1400    63.1230 c6         1 I6Y       0.171300
     13 C10         21.3200     2.9560    64.8940 cc         1 I6Y      -0.160100
     14 C17         17.7610     3.9260    65.1660 ca         1 I6Y      -0.038000
     15 C18         14.7340     4.2490    64.9580 ca         1 I6Y      -0.162500
     16 C19         13.3720     4.5250    65.1570 ca         1 I6Y       0.332900
     17 C7          19.8730     4.5990    64.1800 ca         1 I6Y      -0.042200
     18 C9          20.0410     2.7150    65.3790 cd         1 I6Y      -0.236200
     19 N1          21.1870     4.1420    64.1440 na         1 I6Y      -0.087700
     20 N2          23.8300     6.8740    63.4770 n3         1 I6Y      -0.735600
     21 N3          26.3080     7.0790    65.1510 n7         1 I6Y      -0.856400
     22 N4          12.8750     5.7810    65.2160 nb         1 I6Y      -0.667000
     23 H1          13.3280     7.8100    65.1260 h4         1 I6Y       0.016100
     24 H2          15.7650     7.4860    64.7740 ha         1 I6Y       0.122500
     25 H3          17.4480     6.8180    63.3360 ha         1 I6Y       0.113000
     26 H4          19.8740     6.4200    62.9850 ha         1 I6Y       0.118000
     27 H5          23.0550     4.1410    63.2030 h1         1 I6Y       0.065700
     28 H6          21.8540     5.2070    62.4570 h1         1 I6Y       0.065700
     29 H7          21.9720     6.6970    64.4830 h1         1 I6Y       0.043700
     30 H8          23.2390     5.6740    65.1510 h1         1 I6Y       0.043700
     31 H10         23.2870     8.6810    64.5120 h1         1 I6Y       0.058450
     32 H11         24.4870     7.3220    66.2190 h1         1 I6Y       0.035200
     33 H12         25.3710     8.8270    65.9220 h1         1 I6Y       0.035200
     34 H13         25.4720     5.1280    65.0280 h1         1 I6Y       0.035200
     35 H14         26.9260     5.3680    64.0470 h1         1 I6Y       0.035200
     36 H15         25.6830     6.7460    62.4200 h1         1 I6Y       0.058450
     37 H16         24.8760     5.1970    62.6020 h1         1 I6Y       0.058450
     38 H17         22.2560     2.4180    65.0120 h4         1 I6Y       0.211000
     39 H18         17.2130     3.2220    65.7860 ha         1 I6Y       0.117000
     40 H19         15.0590     3.2140    64.9090 ha         1 I6Y       0.122500
     41 H20         12.6530     3.7140    65.2720 h4         1 I6Y       0.016100
     42 H21         19.7720     1.8690    66.0070 ha         1 I6Y       0.207000
     43 H23         26.7890     6.8220    66.0240 hn         1 I6Y       0.412000
     44 C11         22.2520     4.8550    63.4160 c3         1 I6Y       0.073600
     45 H9          24.7470     8.8040    63.5340 h1         1 I6Y       0.058450
@<TRIPOS>BOND
     1     1     2 ar  
     2     1    22 ar  
     3     1    23 1   
     4     2     3 ar  
     5     2    24 1   
     6     3     4 1   
     7     3    15 ar  
     8     4     5 ar  
     9     4    14 ar  
    10     5     6 ar  
    11     5    25 1   
    12     6    17 ar  
    13     6    26 1   
    14     7    14 ar  
    15     7    17 ar  
    16     7    18 1   
    17     8    20 1   
    18     8    29 1   
    19     8    30 1   
    20     8    44 1   
    21     9    10 1   
    22     9    20 1   
    23     9    31 1   
    24     9    45 1   
    25    10    21 1   
    26    10    32 1   
    27    10    33 1   
    28    11    12 1   
    29    11    21 1   
    30    11    34 1   
    31    11    35 1   
    32    12    20 1   
    33    12    36 1   
    34    12    37 1   
    35    13    18 2   
    36    13    19 1   
    37    13    38 1   
    38    14    39 1   
    39    15    16 ar  
    40    15    40 1   
    41    16    22 ar  
    42    16    41 1   
    43    17    19 1   
    44    18    42 1   
    45    19    44 1   
    46    21    43 1   
    47    27    44 1   
    48    28    44 1   
@<TRIPOS>SUBSTRUCTURE
     1 I6Y         1 TEMP              0 ****  ****    0 ROOT
