@<TRIPOS>MOLECULE
I6Z
   62    65     1     0     0
SMALL
No Charge or Current Charge


@<TRIPOS>ATOM
      1 C10         33.1550    -1.0870   113.6460 c3         1 I6Z      -0.043400
      2 C11         33.4700    -1.4550   112.1980 cx         1 I6Z      -0.130700
      3 C01         25.4760    -3.0640   114.5870 c6         1 I6Z      -0.017100
      4 C02         26.9320    -3.1860   114.9670 cc         1 I6Z      -0.086300
      5 C04         29.2110    -3.3460   114.8210 cc         1 I6Z      -0.265600
      6 C05         30.5550    -3.4500   114.1940 c          1 I6Z       0.643700
      7 C08         33.0570    -3.5140   114.6430 c3         1 I6Z       0.037700
      8 C09         33.7080    -2.1020   114.6770 c3         1 I6Z      -0.084400
      9 C12         33.6450    -0.3860   111.1460 cx         1 I6Z      -0.131400
     10 C13         34.8360    -1.1960   111.6080 cx         1 I6Z      -0.131400
     11 C14         33.8230    -4.5070   115.5650 c          1 I6Z       0.594100
     12 C17         36.0700    -5.7660   115.5610 ca         1 I6Z      -0.017000
     13 C18         37.2170    -5.9510   114.7660 ca         1 I6Z      -0.149500
     14 C19         38.2600    -6.7920   115.1920 ca         1 I6Z      -0.084000
     15 C20         38.1640    -7.4580   116.4230 ca         1 I6Z      -0.138000
     16 C21         37.0260    -7.2820   117.2260 ca         1 I6Z      -0.084000
     17 C22         35.9830    -6.4410   116.8000 ca         1 I6Z      -0.149500
     18 C23         28.8670    -3.2610   116.1670 cd         1 I6Z      -0.016300
     19 C24         29.8010    -3.2790   117.3630 c3         1 I6Z      -0.041800
     20 C25         27.4420    -3.1580   116.2360 cd         1 I6Z      -0.270600
     21 C26         26.5280    -3.0060   117.4110 c          1 I6Z       0.619700
     22 C28         25.0230    -3.0170   117.0820 c6         1 I6Z      -0.175400
     23 C29         24.6650    -2.3600   115.7170 c6         1 I6Z      -0.031000
     24 C30         23.1390    -2.5080   115.4430 c3         1 I6Z      -0.088100
     25 C31         24.9800    -0.8320   115.7520 c3         1 I6Z      -0.088100
     26 N03         28.0100    -3.3090   114.1080 na         1 I6Z      -0.053000
     27 N07         31.6320    -3.4450   115.0450 ns         1 I6Z      -0.476900
     28 N16         35.0590    -4.8980   115.0610 ns         1 I6Z      -0.138000
     29 O06         30.6950    -3.5350   112.9830 o          1 I6Z      -0.629100
     30 O15         33.3560    -4.9000   116.6310 o          1 I6Z      -0.576100
     31 O27         26.9060    -2.8550   118.5660 o          1 I6Z      -0.544100
     32 H1          33.5840    -0.1030   113.8760 hc         1 I6Z       0.046200
     33 H2          32.0720    -0.9790   113.7760 hc         1 I6Z       0.046200
     34 H3          32.9650    -2.3630   111.8770 hc         1 I6Z       0.082700
     35 H5          25.0650    -4.0670   114.4050 hc         1 I6Z       0.059700
     36 H6          33.1270    -3.9200   113.6260 h1         1 I6Z       0.076700
     37 H7          34.7900    -2.1930   114.5170 hc         1 I6Z       0.057700
     38 H8          33.5850    -1.6820   115.6830 hc         1 I6Z       0.057700
     39 H9          33.5900     0.6550   111.4570 hc         1 I6Z       0.070950
     40 H10         33.2510    -0.5840   110.1520 hc         1 I6Z       0.070950
     41 H11         35.2410    -1.9380   110.9240 hc         1 I6Z       0.070950
     42 H12         35.5770    -0.6970   112.2290 hc         1 I6Z       0.070950
     43 H13         37.3050    -5.4400   113.8090 ha         1 I6Z       0.127000
     44 H14         39.1410    -6.9260   114.5680 ha         1 I6Z       0.112000
     45 H15         38.9690    -8.1100   116.7550 ha         1 I6Z       0.114000
     46 H16         36.9510    -7.7990   118.1810 ha         1 I6Z       0.112000
     47 H17         35.1200    -6.3290   117.4480 ha         1 I6Z       0.127000
     48 H18         30.4480    -2.3940   117.3710 hc         1 I6Z       0.052700
     49 H19         29.2760    -3.2960   118.3200 hc         1 I6Z       0.052700
     50 H20         30.4320    -4.1750   117.3550 hc         1 I6Z       0.052700
     51 H21         24.4540    -2.6030   117.9250 hc         1 I6Z       0.068200
     52 H22         24.7560    -4.0790   116.9980 hc         1 I6Z       0.068200
     53 H23         22.8360    -3.5620   115.4160 hc         1 I6Z       0.039200
     54 H24         22.5420    -2.0170   116.2220 hc         1 I6Z       0.039200
     55 H25         22.8580    -2.0620   114.4810 hc         1 I6Z       0.039200
     56 H26         24.4250    -0.3280   116.5530 hc         1 I6Z       0.039200
     57 H27         26.0450    -0.6360   115.9210 hc         1 I6Z       0.039200
     58 H28         24.7070    -0.3460   114.8070 hc         1 I6Z       0.039200
     59 H29         27.9410    -3.3520   113.0950 hn         1 I6Z       0.371000
     60 H30         31.4190    -3.4140   116.0320 hn         1 I6Z       0.333500
     61 H31         35.2880    -4.4850   114.1670 hn         1 I6Z       0.152000
     62 H4          25.3610    -2.5160   113.6410 hc         1 I6Z       0.059700
@<TRIPOS>BOND
     1     1     2 1   
     2     1     8 1   
     3     1    32 1   
     4     1    33 1   
     5     2     9 1   
     6     2    10 1   
     7     2    34 1   
     8     3     4 1   
     9     3    23 1   
    10     3    35 1   
    11     3    62 1   
    12     4    20 2   
    13     4    26 1   
    14     5     6 1   
    15     5    18 2   
    16     5    26 1   
    17     6    27 1   
    18     6    29 2   
    19     7     8 1   
    20     7    11 1   
    21     7    27 1   
    22     7    36 1   
    23     8    37 1   
    24     8    38 1   
    25     9    10 1   
    26     9    39 1   
    27     9    40 1   
    28    10    41 1   
    29    10    42 1   
    30    11    28 1   
    31    11    30 2   
    32    12    13 ar  
    33    12    17 ar  
    34    12    28 1   
    35    13    14 ar  
    36    13    43 1   
    37    14    15 ar  
    38    14    44 1   
    39    15    16 ar  
    40    15    45 1   
    41    16    17 ar  
    42    16    46 1   
    43    17    47 1   
    44    18    19 1   
    45    18    20 1   
    46    19    48 1   
    47    19    49 1   
    48    19    50 1   
    49    20    21 1   
    50    21    22 1   
    51    21    31 2   
    52    22    23 1   
    53    22    51 1   
    54    22    52 1   
    55    23    24 1   
    56    23    25 1   
    57    24    53 1   
    58    24    54 1   
    59    24    55 1   
    60    25    56 1   
    61    25    57 1   
    62    25    58 1   
    63    26    59 1   
    64    27    60 1   
    65    28    61 1   
@<TRIPOS>SUBSTRUCTURE
     1 I6Z         1 TEMP              0 ****  ****    0 ROOT
