@<TRIPOS>MOLECULE
I6Z
   62    65     1     0     0
SMALL
bcc


@<TRIPOS>ATOM
      1 C10         33.8060    -0.5400   114.8060 c3         1 I6Z      -0.043400
      2 C11         33.5930    -0.4950   113.3150 cx         1 I6Z      -0.130700
      3 C01         26.0900    -4.3030   115.5100 c6         1 I6Z      -0.017100
      4 C02         27.4040    -3.6200   115.5890 cc         1 I6Z      -0.035600
      5 C04         29.5840    -3.2040   115.4040 cc         1 I6Z      -0.214900
      6 C05         30.9310    -3.5740   114.9650 c          1 I6Z       0.710700
      7 C08         33.2940    -3.0540   114.9170 c3         1 I6Z       0.037700
      8 C09         34.2290    -1.9140   115.3290 c3         1 I6Z      -0.084400
      9 C12         33.9170     0.7480   112.5470 cx         1 I6Z      -0.131400
     10 C13         34.7760    -0.4730   112.3960 cx         1 I6Z      -0.131400
     11 C14         33.7940    -4.3630   115.5350 c          1 I6Z       0.661100
     12 C17         35.3360    -6.2400   114.9900 ca         1 I6Z       0.075600
     13 C18         36.0320    -6.8080   113.9190 ca         1 I6Z      -0.167500
     14 C19         36.7580    -7.9740   114.0860 ca         1 I6Z      -0.102000
     15 C20         36.8060    -8.6000   115.3250 ca         1 I6Z      -0.156000
     16 C21         36.1180    -8.0360   116.3880 ca         1 I6Z      -0.102000
     17 C22         35.3840    -6.8670   116.2360 ca         1 I6Z      -0.167500
     18 C23         29.0320    -2.0780   115.9800 cd         1 I6Z      -0.016300
     19 C24         29.7350    -0.8200   116.3750 c3         1 I6Z      -0.041800
     20 C25         27.6370    -2.3490   116.1030 cd         1 I6Z      -0.270600
     21 C26         26.5340    -1.5480   116.6030 c          1 I6Z       0.619700
     22 C28         25.1890    -2.2530   116.6190 c6         1 I6Z      -0.175400
     23 C29         24.9580    -3.2630   115.4850 c6         1 I6Z      -0.031000
     24 C30         23.6250    -3.9720   115.7080 c3         1 I6Z      -0.088100
     25 C31         24.9210    -2.5480   114.1330 c3         1 I6Z      -0.088100
     26 N03         28.5700    -4.1110   115.1770 na         1 I6Z      -0.104100
     27 N07         31.9500    -2.7750   115.3410 ns         1 I6Z      -0.543900
     28 N16         34.6370    -5.0560   114.7320 ns         1 I6Z      -0.464100
     29 O06         31.1120    -4.5640   114.2620 o          1 I6Z      -0.629100
     30 O15         33.4790    -4.6920   116.6610 o          1 I6Z      -0.576100
     31 O27         26.6480    -0.4080   117.0210 o          1 I6Z      -0.544100
     32 H1          34.5860     0.1740   115.0840 hc         1 I6Z       0.046200
     33 H2          32.8990    -0.2020   115.3150 hc         1 I6Z       0.046200
     34 H3          32.7290    -1.0480   112.9600 hc         1 I6Z       0.082700
     35 H5          25.9670    -4.9530   116.3840 hc         1 I6Z       0.059700
     36 H6          33.3070    -3.1400   113.8270 h1         1 I6Z       0.076700
     37 H7          35.2280    -2.1470   114.9530 hc         1 I6Z       0.057700
     38 H8          34.3040    -1.8820   116.4190 hc         1 I6Z       0.057700
     39 H9          34.3240     1.5900   113.0940 hc         1 I6Z       0.070950
     40 H10         33.2720     1.0260   111.7240 hc         1 I6Z       0.070950
     41 H11         34.7230    -1.0270   111.4670 hc         1 I6Z       0.070950
     42 H12         35.7630    -0.4560   112.8440 hc         1 I6Z       0.070950
     43 H13         36.0020    -6.3310   112.9460 ha         1 I6Z       0.145000
     44 H14         37.2880    -8.3940   113.2410 ha         1 I6Z       0.130000
     45 H15         37.3720    -9.5130   115.4580 ha         1 I6Z       0.132000
     46 H16         36.1450    -8.5100   117.3620 ha         1 I6Z       0.130000
     47 H17         34.8610    -6.4560   117.0840 ha         1 I6Z       0.145000
     48 H18         30.4060    -0.4680   115.5900 hc         1 I6Z       0.052700
     49 H19         29.0240    -0.0280   116.5820 hc         1 I6Z       0.052700
     50 H20         30.3320    -0.9590   117.2800 hc         1 I6Z       0.052700
     51 H21         24.4000    -1.4970   116.6230 hc         1 I6Z       0.068200
     52 H22         25.1250    -2.7780   117.5810 hc         1 I6Z       0.068200
     53 H23         23.6050    -4.4880   116.6700 hc         1 I6Z       0.039200
     54 H24         22.7970    -3.2620   115.6910 hc         1 I6Z       0.039200
     55 H25         23.4440    -4.7130   114.9270 hc         1 I6Z       0.039200
     56 H26         24.1180    -1.8090   114.1110 hc         1 I6Z       0.039200
     57 H27         25.8530    -2.0290   113.9030 hc         1 I6Z       0.039200
     58 H28         24.7370    -3.2620   113.3280 hc         1 I6Z       0.039200
     59 H29         28.7090    -5.0110   114.7410 hn         1 I6Z       0.320700
     60 H30         31.8180    -2.1210   116.0960 hn         1 I6Z       0.333500
     61 H31         34.7580    -4.6920   113.7980 hn         1 I6Z       0.318500
     62 H4          26.0370    -4.9490   114.6290 hc         1 I6Z       0.059700
@<TRIPOS>BOND
     1     1     2 1   
     2     1     8 1   
     3     1    32 1   
     4     1    33 1   
     5     2     9 1   
     6     2    10 1   
     7     2    34 1   
     8     3     4 1   
     9     3    23 1   
    10     3    35 1   
    11     3    62 1   
    12     4    20 2   
    13     4    26 1   
    14     5     6 1   
    15     5    18 2   
    16     5    26 1   
    17     6    27 1   
    18     6    29 2   
    19     7     8 1   
    20     7    11 1   
    21     7    27 1   
    22     7    36 1   
    23     8    37 1   
    24     8    38 1   
    25     9    10 1   
    26     9    39 1   
    27     9    40 1   
    28    10    41 1   
    29    10    42 1   
    30    11    28 1   
    31    11    30 2   
    32    12    13 ar  
    33    12    17 ar  
    34    12    28 1   
    35    13    14 ar  
    36    13    43 1   
    37    14    15 ar  
    38    14    44 1   
    39    15    16 ar  
    40    15    45 1   
    41    16    17 ar  
    42    16    46 1   
    43    17    47 1   
    44    18    19 1   
    45    18    20 1   
    46    19    48 1   
    47    19    49 1   
    48    19    50 1   
    49    20    21 1   
    50    21    22 1   
    51    21    31 2   
    52    22    23 1   
    53    22    51 1   
    54    22    52 1   
    55    23    24 1   
    56    23    25 1   
    57    24    53 1   
    58    24    54 1   
    59    24    55 1   
    60    25    56 1   
    61    25    57 1   
    62    25    58 1   
    63    26    59 1   
    64    27    60 1   
    65    28    61 1   
@<TRIPOS>SUBSTRUCTURE
     1 I6Z         1 TEMP              0 ****  ****    0 ROOT
