@<TRIPOS>MOLECULE
I71
   91    93     1     0     0
SMALL
bcc


@<TRIPOS>ATOM
      1 C1         -13.7750    -9.9390   -16.0780 c          1 I71       0.669100
      2 C11         -9.6700   -17.4440   -18.2240 c3         1 I71       0.056700
      3 C12         -9.7530   -16.1040   -17.4960 c          1 I71       0.651100
      4 C13         -8.3170   -14.9920   -19.2440 c5         1 I71       0.130000
      5 C14         -9.1990   -13.7570   -17.3420 c5         1 I71       0.057700
      6 C15        -10.5640   -13.1230   -17.6100 c          1 I71       0.658100
      7 C16         -7.5740   -13.6840   -19.1560 cx         1 I71      -0.119700
      8 C17        -12.5470   -12.1000   -16.5420 c3         1 I71       0.073700
      9 C18         -6.6990   -13.4170   -17.9650 cx         1 I71      -0.074000
     10 C19        -13.5570   -13.0380   -15.8850 c3         1 I71      -0.078400
     11 C20        -13.7090   -14.3610   -16.6160 c5         1 I71      -0.156700
     12 C21        -14.3270   -14.2760   -18.0120 c5         1 I71      -0.095400
     13 C22        -15.0580   -15.6100   -18.1800 c5         1 I71       0.100000
     14 C23         -6.2340   -14.5130   -17.0350 c3         1 I71      -0.065600
     15 C24        -14.6300   -15.3280   -15.8850 c          1 I71       0.708500
     16 C25         -5.6490   -12.3470   -18.1650 c3         1 I71      -0.065600
     17 C27         -5.6200   -20.9180   -17.2490 c3         1 I71      -0.104767
     18 C28         -6.0050   -20.7570   -14.7930 c3         1 I71      -0.104767
     19 C29         -4.9470   -18.8520   -15.9830 c3         1 I71      -0.104767
     20 C3         -14.9020    -8.2650   -17.4560 c3         1 I71       0.104000
     21 C30        -11.0350   -17.8920   -18.8110 c3         1 I71      -0.042000
     22 C31        -12.0850   -18.2310   -17.7510 c3         1 I71      -0.088100
     23 C32        -10.7800   -19.1350   -19.6670 c3         1 I71      -0.088100
     24 C34         -8.1170   -12.9180   -17.9850 cx         1 I71      -0.134700
     25 C4         -14.6040    -7.4430   -18.6950 c3         1 I71      -0.111100
     26 C7          -5.9830   -19.9710   -16.1030 c3         1 I71       0.151400
     27 C8         -12.4800   -10.7150   -15.8500 c3         1 I71       0.054100
     28 N10         -9.1010   -18.4230   -17.3310 ns         1 I71      -0.574900
     29 N13         -9.1180   -15.0400   -18.0220 n          1 I71      -0.461800
     30 N16        -11.2190   -12.6820   -16.5170 ns         1 I71      -0.578900
     31 N2         -13.7580    -9.0810   -17.1010 ns         1 I71      -0.557900
     32 N23        -15.3550   -15.9760   -16.8120 ns         1 I71      -0.584900
     33 N8          -7.3350   -19.4280   -16.2710 ns         1 I71      -0.584900
     34 O26        -14.6870   -15.4980   -14.6780 o          1 I71      -0.629500
     35 O29         -6.9950   -18.2090   -18.1640 o          1 I71      -0.658100
     36 O33        -10.3670   -16.0120   -16.4380 o          1 I71      -0.628100
     37 O38        -10.9790   -13.0120   -18.7510 o          1 I71      -0.593100
     38 O5         -14.7600   -10.1300   -15.3760 o          1 I71      -0.609100
     39 O9         -11.4130    -9.9520   -16.3420 oh         1 I71      -0.603800
     40 H1          -8.9960   -17.3720   -19.0750 h1         1 I71       0.092700
     41 H2          -8.9490   -15.0010   -20.1350 h1         1 I71       0.068700
     42 H3          -7.6460   -15.8500   -19.2960 h1         1 I71       0.068700
     43 H4          -9.0310   -13.8910   -16.2700 h1         1 I71       0.084700
     44 H5          -7.3450   -13.1890   -20.0930 hc         1 I71       0.100700
     45 H6         -12.8050   -11.9430   -17.5920 h1         1 I71       0.090700
     46 H7         -13.2490   -13.2210   -14.8510 hc         1 I71       0.075200
     47 H8         -14.5290   -12.5450   -15.8370 hc         1 I71       0.075200
     48 H9         -12.7370   -14.8670   -16.6740 hc         1 I71       0.090700
     49 H10        -13.5910   -14.1090   -18.7970 hc         1 I71       0.063200
     50 H11        -15.0440   -13.4520   -18.0500 hc         1 I71       0.063200
     51 H12        -15.9700   -15.5160   -18.7680 h1         1 I71       0.042700
     52 H13        -14.4260   -16.3610   -18.6620 h1         1 I71       0.042700
     53 H14         -6.0160   -14.1020   -16.0470 hc         1 I71       0.042033
     54 H15         -6.9510   -15.3210   -16.9030 hc         1 I71       0.042033
     55 H16         -5.3110   -14.9590   -17.4130 hc         1 I71       0.042033
     56 H17         -5.3810   -11.8820   -17.2140 hc         1 I71       0.042033
     57 H18         -4.7400   -12.7730   -18.5950 hc         1 I71       0.042033
     58 H19         -5.9930   -11.5560   -18.8350 hc         1 I71       0.042033
     59 H20        -11.8000   -15.8650   -19.1570 hc         1 I71       0.039700
     60 H21        -10.8480   -16.5190   -20.4940 hc         1 I71       0.039700
     61 H22        -12.4860   -17.0970   -20.2030 hc         1 I71       0.039700
     62 H23         -6.3470   -21.7290   -17.3250 hc         1 I71       0.044589
     63 H24         -5.5860   -20.3980   -18.2050 hc         1 I71       0.044589
     64 H25         -4.6390   -21.3630   -17.0740 hc         1 I71       0.044589
     65 H26         -6.2540   -20.1120   -13.9480 hc         1 I71       0.044589
     66 H27         -6.7310   -21.5720   -14.8270 hc         1 I71       0.044589
     67 H28         -5.0250   -21.1940   -14.6030 hc         1 I71       0.044589
     68 H29         -5.2130   -18.1600   -15.1820 hc         1 I71       0.044589
     69 H30         -3.9710   -19.2790   -15.7450 hc         1 I71       0.044589
     70 H31         -4.8490   -18.2870   -16.9070 hc         1 I71       0.044589
     71 H32        -15.1620    -7.6050   -16.6240 h1         1 I71       0.050200
     72 H33        -15.7670    -8.9070   -17.6320 h1         1 I71       0.050200
     73 H34        -12.3580   -17.3730   -17.1410 hc         1 I71       0.039700
     74 H35        -12.9920   -18.5840   -18.2480 hc         1 I71       0.039700
     75 H36        -11.7570   -19.0320   -17.0860 hc         1 I71       0.039700
     76 H37        -10.3940   -19.9620   -19.0710 hc         1 I71       0.039700
     77 H38        -11.7070   -19.4670   -20.1380 hc         1 I71       0.039700
     78 H39        -10.0590   -18.9270   -20.4610 hc         1 I71       0.039700
     79 H40         -8.2830   -11.8480   -18.0340 hc         1 I71       0.099700
     80 H41        -15.4700    -6.8360   -18.9550 hc         1 I71       0.042367
     81 H42        -13.7620    -6.7690   -18.5340 hc         1 I71       0.042367
     82 H43        -14.3740    -8.0810   -19.5490 hc         1 I71       0.042367
     83 H44        -12.3910   -10.8750   -14.7650 h1         1 I71       0.066700
     84 H45         -9.6400   -18.6530   -16.5100 hn         1 I71       0.314500
     85 H46        -10.8610   -12.9610   -15.6140 hn         1 I71       0.321500
     86 H47        -12.8900    -8.9390   -17.5930 hn         1 I71       0.335500
     87 H48        -15.9630   -16.7440   -16.5750 hn         1 I71       0.325500
     88 H49         -8.0440   -19.8380   -15.6830 hn         1 I71       0.305500
     89 H50        -10.6260   -10.5100   -16.3670 ho         1 I71       0.423000
     90 C26        -11.5660   -16.7750   -19.7120 c3         1 I71      -0.088100
     91 C9          -7.7500   -18.6580   -17.3060 c          1 I71       0.784100
@<TRIPOS>BOND
     1     1    27 1   
     2     1    31 1   
     3     1    38 2   
     4     2     3 1   
     5     2    21 1   
     6     2    28 1   
     7     2    40 1   
     8     3    29 1   
     9     3    36 2   
    10     4     7 1   
    11     4    29 1   
    12     4    41 1   
    13     4    42 1   
    14     5     6 1   
    15     5    24 1   
    16     5    29 1   
    17     5    43 1   
    18     6    30 1   
    19     6    37 2   
    20     7     9 1   
    21     7    24 1   
    22     7    44 1   
    23     8    10 1   
    24     8    27 1   
    25     8    30 1   
    26     8    45 1   
    27     9    14 1   
    28     9    16 1   
    29     9    24 1   
    30    10    11 1   
    31    10    46 1   
    32    10    47 1   
    33    11    12 1   
    34    11    15 1   
    35    11    48 1   
    36    12    13 1   
    37    12    49 1   
    38    12    50 1   
    39    13    32 1   
    40    13    51 1   
    41    13    52 1   
    42    14    53 1   
    43    14    54 1   
    44    14    55 1   
    45    15    32 1   
    46    15    34 2   
    47    16    56 1   
    48    16    57 1   
    49    16    58 1   
    50    17    26 1   
    51    17    62 1   
    52    17    63 1   
    53    17    64 1   
    54    18    26 1   
    55    18    65 1   
    56    18    66 1   
    57    18    67 1   
    58    19    26 1   
    59    19    68 1   
    60    19    69 1   
    61    19    70 1   
    62    20    25 1   
    63    20    31 1   
    64    20    71 1   
    65    20    72 1   
    66    21    22 1   
    67    21    23 1   
    68    21    90 1   
    69    22    73 1   
    70    22    74 1   
    71    22    75 1   
    72    23    76 1   
    73    23    77 1   
    74    23    78 1   
    75    24    79 1   
    76    25    80 1   
    77    25    81 1   
    78    25    82 1   
    79    26    33 1   
    80    27    39 1   
    81    27    83 1   
    82    28    84 1   
    83    28    91 1   
    84    30    85 1   
    85    31    86 1   
    86    32    87 1   
    87    33    88 1   
    88    33    91 1   
    89    35    91 2   
    90    39    89 1   
    91    59    90 1   
    92    60    90 1   
    93    61    90 1   
@<TRIPOS>SUBSTRUCTURE
     1 I71         1 TEMP              0 ****  ****    0 ROOT
