@<TRIPOS>MOLECULE
I71
   91    93     1     0     0
SMALL
No Charge or Current Charge


@<TRIPOS>ATOM
      1 C1         -13.5920    -9.7290   -16.2580 c          1 I71       0.602100
      2 C11         -9.4540   -17.4930   -19.1150 c3         1 I71       0.056700
      3 C12         -9.4890   -16.2320   -18.1910 c          1 I71       0.584100
      4 C13         -7.8290   -14.9730   -19.6380 c5         1 I71       0.130000
      5 C14         -9.1270   -13.7540   -17.8860 c5         1 I71       0.057700
      6 C15        -10.5840   -13.2000   -17.9570 c          1 I71       0.591100
      7 C16         -7.3220   -13.5260   -19.5670 cx         1 I71      -0.119700
      8 C17        -12.1450   -11.8660   -16.4800 c3         1 I71       0.073700
      9 C18         -6.6300   -13.0910   -18.2830 cx         1 I71      -0.074000
     10 C19        -12.6180   -12.5600   -15.1730 c3         1 I71      -0.078400
     11 C20        -12.6130   -14.1170   -15.2060 c5         1 I71      -0.156700
     12 C21        -13.5610   -14.7650   -16.2540 c5         1 I71      -0.095400
     13 C22        -13.6880   -16.2080   -15.6950 c5         1 I71       0.100000
     14 C23         -6.1480   -14.0980   -17.2220 c3         1 I71      -0.065600
     15 C24        -13.0740   -14.7720   -13.8970 c          1 I71       0.566000
     16 C25         -5.6430   -11.9280   -18.3620 c3         1 I71      -0.065600
     17 C27         -5.8680   -20.5360   -16.2490 c3         1 I71      -0.104767
     18 C28         -7.7650   -21.6120   -14.9840 c3         1 I71      -0.104767
     19 C29         -7.1540   -19.2160   -14.4910 c3         1 I71      -0.104767
     20 C3         -15.4840    -8.6730   -17.5400 c3         1 I71       0.104000
     21 C30        -10.7000   -17.6470   -20.0630 c3         1 I71      -0.042000
     22 C31        -12.0280   -17.6600   -19.2550 c3         1 I71      -0.088100
     23 C32        -10.5910   -18.9750   -20.8660 c3         1 I71      -0.088100
     24 C34         -8.1040   -12.7880   -18.5140 cx         1 I71      -0.134700
     25 C4         -15.8960    -8.4930   -19.0090 c3         1 I71      -0.111100
     26 C7          -7.2550   -20.2900   -15.6040 c3         1 I71       0.151400
     27 C8         -12.1480   -10.3090   -16.4040 c3         1 I71       0.077300
     28 N10         -9.2570   -18.6620   -18.2460 ns         1 I71      -0.507900
     29 N13         -8.9550   -15.0140   -18.6720 n          1 I71      -0.394800
     30 N16        -10.8170   -12.3810   -16.8670 ns         1 I71      -0.511900
     31 N2         -14.1530    -9.2670   -17.4270 ns         1 I71      -0.490900
     32 N23        -13.6980   -15.9350   -14.2600 ns         1 I71      -0.517900
     33 N8          -8.2320   -19.8860   -16.6220 ns         1 I71      -0.517900
     34 O26        -13.1310   -14.3070   -12.7700 o          1 I71      -0.554000
     35 O29         -7.2990   -17.9290   -17.4050 o          1 I71      -0.658100
     36 O33        -10.0520   -16.2500   -17.0970 o          1 I71      -0.628100
     37 O38        -11.4170   -13.4030   -18.8320 o          1 I71      -0.593100
     38 O5         -14.1760    -9.6390   -15.1840 o          1 I71      -0.609100
     39 O9         -11.4530    -9.7700   -17.5620 oh         1 I71      -0.666000
     40 H1          -8.5620   -17.4220   -19.7470 h1         1 I71       0.092700
     41 H2          -8.1780   -15.2190   -20.6490 h1         1 I71       0.068700
     42 H3          -7.0480   -15.7000   -19.3770 h1         1 I71       0.068700
     43 H4          -8.9060   -13.9380   -16.8260 h1         1 I71       0.084700
     44 H5          -7.0620   -13.0070   -20.4880 hc         1 I71       0.100700
     45 H6         -12.8630   -12.1420   -17.2660 h1         1 I71       0.090700
     46 H7         -11.9790   -12.2170   -14.3480 hc         1 I71       0.075200
     47 H8         -13.6310   -12.2190   -14.9300 hc         1 I71       0.075200
     48 H9         -11.5990   -14.4860   -15.3930 hc         1 I71       0.090700
     49 H10        -13.1630   -14.7470   -17.2740 hc         1 I71       0.063200
     50 H11        -14.5380   -14.2680   -16.2710 hc         1 I71       0.063200
     51 H12        -14.6030   -16.7060   -16.0430 h1         1 I71       0.042700
     52 H13        -12.8250   -16.8260   -15.9780 h1         1 I71       0.042700
     53 H14         -6.0770   -13.6180   -16.2390 hc         1 I71       0.042033
     54 H15         -6.8000   -14.9690   -17.1060 hc         1 I71       0.042033
     55 H16         -5.1510   -14.4780   -17.4770 hc         1 I71       0.042033
     56 H17         -5.5660   -11.4110   -17.3970 hc         1 I71       0.042033
     57 H18         -4.6420   -12.2790   -18.6390 hc         1 I71       0.042033
     58 H19         -5.9510   -11.1860   -19.1090 hc         1 I71       0.042033
     59 H20        -10.8650   -15.5120   -20.5840 hc         1 I71       0.039700
     60 H21         -9.8420   -16.4490   -21.6950 hc         1 I71       0.039700
     61 H22        -11.6050   -16.5950   -21.7660 hc         1 I71       0.039700
     62 H23         -5.9420   -21.2620   -17.0670 hc         1 I71       0.044589
     63 H24         -5.4400   -19.6120   -16.6520 hc         1 I71       0.044589
     64 H25         -5.1610   -20.9310   -15.5090 hc         1 I71       0.044589
     65 H26         -8.7510   -21.4740   -14.5230 hc         1 I71       0.044589
     66 H27         -7.8540   -22.3950   -15.7480 hc         1 I71       0.044589
     67 H28         -7.0780   -21.9730   -14.2100 hc         1 I71       0.044589
     68 H29         -8.1420   -19.0050   -14.0640 hc         1 I71       0.044589
     69 H30         -6.5000   -19.5580   -13.6810 hc         1 I71       0.044589
     70 H31         -6.7420   -18.2760   -14.8740 hc         1 I71       0.044589
     71 H32        -15.4820    -7.6980   -17.0350 h1         1 I71       0.050200
     72 H33        -16.2100    -9.3240   -17.0350 h1         1 I71       0.050200
     73 H34        -12.1940   -16.7040   -18.7450 hc         1 I71       0.039700
     74 H35        -12.8860   -17.8290   -19.9180 hc         1 I71       0.039700
     75 H36        -12.0300   -18.4540   -18.4990 hc         1 I71       0.039700
     76 H37        -10.6430   -19.8510   -20.2080 hc         1 I71       0.039700
     77 H38        -11.4080   -19.0630   -21.5930 hc         1 I71       0.039700
     78 H39         -9.6440   -19.0220   -21.4180 hc         1 I71       0.039700
     79 H40         -8.3850   -11.7540   -18.7030 hc         1 I71       0.099700
     80 H41        -16.8970    -8.0480   -19.0710 hc         1 I71       0.042367
     81 H42        -15.1940    -7.8310   -19.5310 hc         1 I71       0.042367
     82 H43        -15.9170    -9.4590   -19.5270 hc         1 I71       0.042367
     83 H44        -11.6080   -10.0150   -15.4950 h1         1 I71       0.066700
     84 H45        -10.0180   -19.3100   -18.1290 hn         1 I71       0.314500
     85 H46        -10.0550   -12.2780   -16.2060 hn         1 I71       0.321500
     86 H47        -13.5600    -9.3240   -18.2480 hn         1 I71       0.335500
     87 H48        -14.1610   -16.4880   -13.5480 hn         1 I71       0.325500
     88 H49         -9.0310   -20.4890   -16.7560 hn         1 I71       0.305500
     89 H50        -10.7110   -10.3870   -17.7500 ho         1 I71       0.462000
     90 C26        -10.7530   -16.4800   -21.0850 c3         1 I71      -0.088100
     91 C9          -8.1820   -18.7680   -17.4160 c          1 I71       0.650100
@<TRIPOS>BOND
     1     1    27 1   
     2     1    31 1   
     3     1    38 2   
     4     2     3 1   
     5     2    21 1   
     6     2    28 1   
     7     2    40 1   
     8     3    29 1   
     9     3    36 2   
    10     4     7 1   
    11     4    29 1   
    12     4    41 1   
    13     4    42 1   
    14     5     6 1   
    15     5    24 1   
    16     5    29 1   
    17     5    43 1   
    18     6    30 1   
    19     6    37 2   
    20     7     9 1   
    21     7    24 1   
    22     7    44 1   
    23     8    10 1   
    24     8    27 1   
    25     8    30 1   
    26     8    45 1   
    27     9    14 1   
    28     9    16 1   
    29     9    24 1   
    30    10    11 1   
    31    10    46 1   
    32    10    47 1   
    33    11    12 1   
    34    11    15 1   
    35    11    48 1   
    36    12    13 1   
    37    12    49 1   
    38    12    50 1   
    39    13    32 1   
    40    13    51 1   
    41    13    52 1   
    42    14    53 1   
    43    14    54 1   
    44    14    55 1   
    45    15    32 1   
    46    15    34 2   
    47    16    56 1   
    48    16    57 1   
    49    16    58 1   
    50    17    26 1   
    51    17    62 1   
    52    17    63 1   
    53    17    64 1   
    54    18    26 1   
    55    18    65 1   
    56    18    66 1   
    57    18    67 1   
    58    19    26 1   
    59    19    68 1   
    60    19    69 1   
    61    19    70 1   
    62    20    25 1   
    63    20    31 1   
    64    20    71 1   
    65    20    72 1   
    66    21    22 1   
    67    21    23 1   
    68    21    90 1   
    69    22    73 1   
    70    22    74 1   
    71    22    75 1   
    72    23    76 1   
    73    23    77 1   
    74    23    78 1   
    75    24    79 1   
    76    25    80 1   
    77    25    81 1   
    78    25    82 1   
    79    26    33 1   
    80    27    39 1   
    81    27    83 1   
    82    28    84 1   
    83    28    91 1   
    84    30    85 1   
    85    31    86 1   
    86    32    87 1   
    87    33    88 1   
    88    33    91 1   
    89    35    91 2   
    90    39    89 1   
    91    59    90 1   
    92    60    90 1   
    93    61    90 1   
@<TRIPOS>SUBSTRUCTURE
     1 I71         1 TEMP              0 ****  ****    0 ROOT
