@<TRIPOS>MOLECULE
I73
   59    62     1     0     0
SMALL
bcc


@<TRIPOS>ATOM
      1 O1          -5.8170     0.5780    -1.7830 oh         1 I73      -0.592800
      2 C42         -5.6340     1.1120    -0.4880 c6         1 I73       0.116100
      3 C43         -6.6020     2.2720    -0.2330 c6         1 I73       0.113800
      4 N44         -6.4210     2.9250     1.0490 n7         1 I73      -0.784200
      5 C45         -5.0460     3.3640     1.2280 c6         1 I73       0.144800
      6 C46         -4.0170     2.2570     1.0180 c6         1 I73      -0.114400
      7 C41         -4.1900     1.5850    -0.3460 c6         1 I73      -0.074700
      8 C40         -3.2100     0.4320    -0.5440 c3         1 I73       0.234800
      9 N18         -1.8470     0.9080    -0.4880 nu         1 I73      -0.876900
     10 C5          -0.7770     0.0970    -0.3610 cc         1 I73       0.751200
     11 C4           0.5230     0.6760    -0.4500 cc         1 I73      -0.478300
     12 C3           1.6250    -0.1270    -0.2820 cd         1 I73       0.337300
     13 N2           1.3770    -1.4520    -0.0560 na         1 I73      -0.007800
     14 N1           2.3280    -2.3840     0.1190 nc         1 I73      -0.624100
     15 C9           1.6410    -3.5010     0.2930 cd         1 I73       0.414500
     16 C8           0.2510    -3.3200     0.2370 cd         1 I73      -0.323800
     17 C26         -0.8370    -4.3400     0.3670 c3         1 I73       0.030500
     18 C28         -0.8540    -5.2920    -0.8300 c3         1 I73      -0.083100
     19 C27         -0.7220    -5.1260     1.6740 c3         1 I73      -0.083100
     20 C7           0.0990    -1.9590     0.0040 cd         1 I73       0.468500
     21 N6          -0.9890    -1.1900    -0.1500 nd         1 I73      -0.786000
     22 N10          2.9090     0.2490    -0.2960 nu         1 I73      -0.763600
     23 C11          3.3250     1.5940    -0.6310 c3         1 I73       0.278100
     24 C12          4.7800     1.7810    -0.3000 ca         1 I73      -0.120300
     25 C17          5.7290     1.9150    -1.3080 ca         1 I73      -0.107500
     26 C16          7.0740     2.0750    -0.9940 ca         1 I73      -0.130000
     27 C15          7.4800     2.0960     0.3320 ca         1 I73      -0.114000
     28 C14          6.5380     1.9590     1.3450 ca         1 I73      -0.130000
     29 C13          5.1970     1.8020     1.0290 ca         1 I73      -0.107500
     30 H1          -6.6970     0.1910    -1.8250 ho         1 I73       0.407000
     31 H2          -5.8140     0.3400     0.2790 h1         1 I73       0.030700
     32 H3          -6.4680     3.0150    -1.0260 h1         1 I73       0.058700
     33 H4          -7.6330     1.9130    -0.3050 h1         1 I73       0.058700
     34 H5          -6.6580     2.2740     1.7900 hn         1 I73       0.349800
     35 H7          -4.8530     4.1740     0.5150 h1         1 I73       0.054700
     36 H8          -4.9410     3.7930     2.2260 h1         1 I73       0.054700
     37 H9          -3.0100     2.6690     1.1160 hc         1 I73       0.051700
     38 H10         -4.1250     1.5060     1.8090 hc         1 I73       0.051700
     39 H11         -4.0110     2.3380    -1.1280 hc         1 I73       0.059700
     40 H12         -3.3580    -0.3090     0.2450 h1         1 I73       0.065200
     41 H13         -3.4050    -0.0730    -1.4940 h1         1 I73       0.065200
     42 H14         -1.6730     1.8540    -0.7870 hn         1 I73       0.431800
     43 H15          0.6370     1.7320    -0.6450 ha         1 I73       0.147000
     44 H16          2.1750    -4.4260     0.4600 h4         1 I73       0.039800
     45 H17         -1.7880    -3.7980     0.3800 hc         1 I73       0.062700
     46 H18          0.0720    -5.8700    -0.8780 hc         1 I73       0.029533
     47 H19         -1.6830    -5.9990    -0.7560 hc         1 I73       0.029533
     48 H20         -0.9570    -4.7480    -1.7700 hc         1 I73       0.029533
     49 H21         -0.7410    -4.4650     2.5410 hc         1 I73       0.029533
     50 H22         -1.5440    -5.8380     1.7750 hc         1 I73       0.029533
     51 H23          0.2100    -5.6950     1.7080 hc         1 I73       0.029533
     52 H24          3.5990    -0.4860    -0.3230 hn         1 I73       0.472800
     53 H25          3.1440     1.8120    -1.6880 h1         1 I73       0.051200
     54 H26          2.7250     2.3020    -0.0520 h1         1 I73       0.051200
     55 H27          5.4170     1.8960    -2.3450 ha         1 I73       0.135500
     56 H28          7.8020     2.1800    -1.7880 ha         1 I73       0.134500
     57 H29          8.5270     2.2190     0.5770 ha         1 I73       0.134000
     58 H30          6.8480     1.9800     2.3820 ha         1 I73       0.134500
     59 H31          4.4650     1.7030     1.8230 ha         1 I73       0.135500
@<TRIPOS>BOND
     1     1     2 1   
     2     1    30 1   
     3     2     3 1   
     4     2     7 1   
     5     2    31 1   
     6     3     4 1   
     7     3    32 1   
     8     3    33 1   
     9     4     5 1   
    10     4    34 1   
    11     5     6 1   
    12     5    35 1   
    13     5    36 1   
    14     6     7 1   
    15     6    37 1   
    16     6    38 1   
    17     7     8 1   
    18     7    39 1   
    19     8     9 1   
    20     8    40 1   
    21     8    41 1   
    22     9    10 1   
    23     9    42 1   
    24    10    11 1   
    25    10    21 2   
    26    11    12 2   
    27    11    43 1   
    28    12    13 1   
    29    12    22 1   
    30    13    14 1   
    31    13    20 1   
    32    14    15 2   
    33    15    16 1   
    34    15    44 1   
    35    16    17 1   
    36    16    20 2   
    37    17    18 1   
    38    17    19 1   
    39    17    45 1   
    40    18    46 1   
    41    18    47 1   
    42    18    48 1   
    43    19    49 1   
    44    19    50 1   
    45    19    51 1   
    46    20    21 1   
    47    22    23 1   
    48    22    52 1   
    49    23    24 1   
    50    23    53 1   
    51    23    54 1   
    52    24    25 ar  
    53    24    29 ar  
    54    25    26 ar  
    55    25    55 1   
    56    26    27 ar  
    57    26    56 1   
    58    27    28 ar  
    59    27    57 1   
    60    28    29 ar  
    61    28    58 1   
    62    29    59 1   
@<TRIPOS>SUBSTRUCTURE
     1 I73         1 TEMP              0 ****  ****    0 ROOT
