@<TRIPOS>MOLECULE
I73
   59    62     1     0     0
SMALL
No Charge or Current Charge


@<TRIPOS>ATOM
      1 O1          -5.8940     0.5320    -1.7830 oh         1 I73      -0.655000
      2 C42         -5.7130     1.1800    -0.5150 c6         1 I73       0.139300
      3 C43         -6.6430     2.4320    -0.4140 c6         1 I73       0.113800
      4 N44         -6.4420     3.1880     0.8520 n7         1 I73      -0.839400
      5 C45         -5.0370     3.6240     1.0290 c6         1 I73       0.144800
      6 C46         -4.0750     2.4130     1.0000 c6         1 I73      -0.114400
      7 C41         -4.2220     1.5890    -0.3180 c6         1 I73      -0.074700
      8 C40         -3.2820     0.3440    -0.3340 c3         1 I73       0.234800
      9 N18         -1.8560     0.7230    -0.3110 nu         1 I73      -0.932100
     10 C5          -0.7940    -0.1050    -0.1950 cc         1 I73       0.685900
     11 C4           0.4660     0.5290    -0.2010 cc         1 I73      -0.395000
     12 C3           1.6130    -0.2120    -0.0890 cd         1 I73       0.425000
     13 N2           1.4640    -1.6060     0.0290 na         1 I73       0.042900
     14 N1           2.4640    -2.5610     0.1540 nc         1 I73      -0.624100
     15 C9           1.7210    -3.6740     0.2230 cd         1 I73       0.414500
     16 C8           0.3060    -3.4580     0.1470 cd         1 I73      -0.323800
     17 C26         -0.7780    -4.5090     0.1970 c3         1 I73       0.030500
     18 C28         -0.6590    -5.4860    -0.9910 c3         1 I73      -0.083100
     19 C27         -0.7700    -5.2500     1.5500 c3         1 I73      -0.083100
     20 C7           0.1590    -2.0650     0.0170 cd         1 I73       0.468500
     21 N6          -1.0380    -1.3830    -0.0920 nd         1 I73      -0.786000
     22 N10          2.8690     0.3330    -0.0860 nu         1 I73      -0.957200
     23 C11          3.2360     1.7480    -0.1790 c3         1 I73       0.278100
     24 C12          4.7500     1.8860    -0.1140 ca         1 I73      -0.120300
     25 C17          5.5180     1.8540    -1.2960 ca         1 I73      -0.089500
     26 C16          6.9170     1.9810    -1.2350 ca         1 I73      -0.112000
     27 C15          7.5570     2.1400     0.0060 ca         1 I73      -0.096000
     28 C14          6.7970     2.1700     1.1870 ca         1 I73      -0.112000
     29 C13          5.3980     2.0430     1.1280 ca         1 I73      -0.089500
     30 H1          -6.8160     0.1920    -1.8030 ho         1 I73       0.446000
     31 H2          -5.9880     0.4860     0.2940 h1         1 I73       0.030700
     32 H3          -6.4450     3.0980    -1.2680 h1         1 I73       0.058700
     33 H4          -7.6940     2.1140    -0.4840 h1         1 I73       0.058700
     34 H5          -6.6910     2.5780     1.6420 hn         1 I73       0.405000
     35 H7          -4.7660     4.3290     0.2270 h1         1 I73       0.054700
     36 H8          -4.9320     4.1580     1.9850 h1         1 I73       0.054700
     37 H9          -3.0450     2.7770     1.1120 hc         1 I73       0.051700
     38 H10         -4.2700     1.7690     1.8680 hc         1 I73       0.051700
     39 H11         -3.9240     2.2210    -1.1660 hc         1 I73       0.059700
     40 H12         -3.5240    -0.2900     0.5310 h1         1 I73       0.065200
     41 H13         -3.4840    -0.2450    -1.2390 h1         1 I73       0.065200
     42 H14         -1.6130     1.7030    -0.4050 hn         1 I73       0.487000
     43 H15          0.5110     1.6050    -0.2940 ha         1 I73       0.129000
     44 H16          2.2280    -4.6260     0.3290 h4         1 I73       0.039800
     45 H17         -1.7560    -4.0180     0.1080 hc         1 I73       0.062700
     46 H18          0.2870    -6.0390    -0.9510 hc         1 I73       0.029533
     47 H19         -1.4810    -6.2110    -0.9800 hc         1 I73       0.029533
     48 H20         -0.6980    -4.9400    -1.9420 hc         1 I73       0.029533
     49 H21         -0.8880    -4.5400     2.3770 hc         1 I73       0.029533
     50 H22         -1.5940    -5.9720     1.6010 hc         1 I73       0.029533
     51 H23          0.1720    -5.7930     1.6940 hc         1 I73       0.029533
     52 H24          3.6200    -0.3540     0.0100 hn         1 I73       0.528000
     53 H25          2.8680     2.1760    -1.1220 h1         1 I73       0.051200
     54 H26          2.7800     2.3150     0.6450 h1         1 I73       0.051200
     55 H27          5.0310     1.7290    -2.2600 ha         1 I73       0.117500
     56 H28          7.5050     1.9560    -2.1500 ha         1 I73       0.116500
     57 H29          8.6400     2.2370     0.0520 ha         1 I73       0.116000
     58 H30          7.2910     2.2910     2.1490 ha         1 I73       0.116500
     59 H31          4.8160     2.0650     2.0470 ha         1 I73       0.117500
@<TRIPOS>BOND
     1     1     2 1   
     2     1    30 1   
     3     2     3 1   
     4     2     7 1   
     5     2    31 1   
     6     3     4 1   
     7     3    32 1   
     8     3    33 1   
     9     4     5 1   
    10     4    34 1   
    11     5     6 1   
    12     5    35 1   
    13     5    36 1   
    14     6     7 1   
    15     6    37 1   
    16     6    38 1   
    17     7     8 1   
    18     7    39 1   
    19     8     9 1   
    20     8    40 1   
    21     8    41 1   
    22     9    10 1   
    23     9    42 1   
    24    10    11 1   
    25    10    21 2   
    26    11    12 2   
    27    11    43 1   
    28    12    13 1   
    29    12    22 1   
    30    13    14 1   
    31    13    20 1   
    32    14    15 2   
    33    15    16 1   
    34    15    44 1   
    35    16    17 1   
    36    16    20 2   
    37    17    18 1   
    38    17    19 1   
    39    17    45 1   
    40    18    46 1   
    41    18    47 1   
    42    18    48 1   
    43    19    49 1   
    44    19    50 1   
    45    19    51 1   
    46    20    21 1   
    47    22    23 1   
    48    22    52 1   
    49    23    24 1   
    50    23    53 1   
    51    23    54 1   
    52    24    25 ar  
    53    24    29 ar  
    54    25    26 ar  
    55    25    55 1   
    56    26    27 ar  
    57    26    56 1   
    58    27    28 ar  
    59    27    57 1   
    60    28    29 ar  
    61    28    58 1   
    62    29    59 1   
@<TRIPOS>SUBSTRUCTURE
     1 I73         1 TEMP              0 ****  ****    0 ROOT
