@<TRIPOS>MOLECULE
I74
   59    62     1     0     0
SMALL
bcc


@<TRIPOS>ATOM
      1 O1           5.7070     0.4270    -1.7860 oh         1 I74      -0.597800
      2 C42          5.6370     1.0300    -0.5120 c6         1 I74       0.150100
      3 C43          6.6600     2.1580    -0.3870 c6         1 I74       0.122800
      4 N44          6.5550     2.7820     0.9150 n7         1 I74      -0.805200
      5 C45          5.2550     3.4010     1.0930 c6         1 I74       0.156800
      6 C46          4.1710     2.3390     1.0230 c6         1 I74      -0.075400
      7 C41          4.2240     1.5700    -0.3010 c6         1 I74      -0.075700
      8 C40          3.1990     0.4440    -0.3530 c3         1 I74       0.234800
      9 N18          1.8560     0.9610    -0.2170 nu         1 I74      -0.875900
     10 C5           0.7710     0.1610    -0.1300 cc         1 I74       0.749200
     11 C4          -0.5210     0.7630    -0.1410 cc         1 I74      -0.481300
     12 C3          -1.6300    -0.0410    -0.0360 cd         1 I74       0.341300
     13 N2          -1.3960    -1.3840     0.0770 na         1 I74      -0.007800
     14 N1          -2.3570    -2.3150     0.1930 nc         1 I74      -0.627100
     15 C9          -1.6810    -3.4500     0.2760 cd         1 I74       0.414500
     16 C8          -0.2900    -3.2810     0.2170 cd         1 I74      -0.323800
     17 C26          0.7880    -4.3190     0.2680 c3         1 I74       0.030500
     18 C28          0.7120    -5.1480     1.5500 c3         1 I74      -0.082600
     19 C27          0.7450    -5.2300    -0.9610 c3         1 I74      -0.082600
     20 C7          -0.1240    -1.9070     0.0850 cd         1 I74       0.469500
     21 N6           0.9700    -1.1400    -0.0250 nd         1 I74      -0.786000
     22 N10         -2.9070     0.3490    -0.0340 nu         1 I74      -0.772600
     23 C11         -3.3020     1.7390    -0.1160 c3         1 I74       0.285100
     24 C12         -4.8010     1.8410    -0.1020 ca         1 I74      -0.123300
     25 C17         -5.4900     1.8940     1.1060 ca         1 I74      -0.106000
     26 C16         -6.8770     1.9510     1.1240 ca         1 I74      -0.130000
     27 C15         -7.5880     1.9510    -0.0700 ca         1 I74      -0.113000
     28 C14         -6.9070     1.8970    -1.2790 ca         1 I74      -0.130000
     29 C13         -5.5200     1.8400    -1.2940 ca         1 I74      -0.106000
     30 H1           6.5530    -0.0260    -1.8590 ho         1 I74       0.407000
     31 H2           5.8430     0.2950     0.2810 h1         1 I74       0.048700
     32 H3           7.6670     1.7490    -0.5060 h1         1 I74       0.035700
     33 H4           6.4940     2.8640    -1.2180 h1         1 I74       0.035700
     34 H5           7.2850     3.4740     1.0190 hn         1 I74       0.359800
     35 H7           5.2280     3.8990     2.0650 h1         1 I74       0.031200
     36 H8           5.0500     4.1720     0.3310 h1         1 I74       0.031200
     37 H9           4.2960     1.6380     1.8550 hc         1 I74       0.053700
     38 H10          3.1940     2.8090     1.1500 hc         1 I74       0.053700
     39 H11          4.0190     2.2790    -1.1170 hc         1 I74       0.053700
     40 H12          3.3000    -0.1200    -1.2840 h1         1 I74       0.064700
     41 H13          3.3940    -0.2600     0.4610 h1         1 I74       0.064700
     42 H14          1.6990     1.9260    -0.4540 hn         1 I74       0.430800
     43 H15         -0.6250     1.8350    -0.2280 ha         1 I74       0.147000
     44 H16         -2.2250    -4.3780     0.3800 h4         1 I74       0.038800
     45 H17          1.7460    -3.7900     0.2620 hc         1 I74       0.063700
     46 H18         -0.2240    -5.7100     1.5970 hc         1 I74       0.029200
     47 H19          1.5310    -5.8690     1.5980 hc         1 I74       0.029200
     48 H20          0.7660    -4.5170     2.4380 hc         1 I74       0.029200
     49 H21          0.8200    -4.6550    -1.8850 hc         1 I74       0.029200
     50 H22          1.5660    -5.9490    -0.9430 hc         1 I74       0.029200
     51 H23         -0.1900    -5.7940    -0.9930 hc         1 I74       0.029200
     52 H24         -3.6140    -0.3640     0.0620 hn         1 I74       0.478800
     53 H25         -2.8790     2.2980     0.7250 h1         1 I74       0.050200
     54 H26         -2.9040     2.1860    -1.0320 h1         1 I74       0.050200
     55 H27         -4.9370     1.8980     2.0380 ha         1 I74       0.135000
     56 H28         -7.4030     1.9970     2.0690 ha         1 I74       0.135000
     57 H29         -8.6690     1.9970    -0.0570 ha         1 I74       0.134000
     58 H30         -7.4570     1.9010    -2.2120 ha         1 I74       0.135000
     59 H31         -4.9910     1.7980    -2.2380 ha         1 I74       0.135000
@<TRIPOS>BOND
     1     1     2 1   
     2     1    30 1   
     3     2     3 1   
     4     2     7 1   
     5     2    31 1   
     6     3     4 1   
     7     3    32 1   
     8     3    33 1   
     9     4     5 1   
    10     4    34 1   
    11     5     6 1   
    12     5    35 1   
    13     5    36 1   
    14     6     7 1   
    15     6    37 1   
    16     6    38 1   
    17     7     8 1   
    18     7    39 1   
    19     8     9 1   
    20     8    40 1   
    21     8    41 1   
    22     9    10 1   
    23     9    42 1   
    24    10    11 1   
    25    10    21 2   
    26    11    12 2   
    27    11    43 1   
    28    12    13 1   
    29    12    22 1   
    30    13    14 1   
    31    13    20 1   
    32    14    15 2   
    33    15    16 1   
    34    15    44 1   
    35    16    17 1   
    36    16    20 2   
    37    17    18 1   
    38    17    19 1   
    39    17    45 1   
    40    18    46 1   
    41    18    47 1   
    42    18    48 1   
    43    19    49 1   
    44    19    50 1   
    45    19    51 1   
    46    20    21 1   
    47    22    23 1   
    48    22    52 1   
    49    23    24 1   
    50    23    53 1   
    51    23    54 1   
    52    24    25 ar  
    53    24    29 ar  
    54    25    26 ar  
    55    25    55 1   
    56    26    27 ar  
    57    26    56 1   
    58    27    28 ar  
    59    27    57 1   
    60    28    29 ar  
    61    28    58 1   
    62    29    59 1   
@<TRIPOS>SUBSTRUCTURE
     1 I74         1 TEMP              0 ****  ****    0 ROOT
