@<TRIPOS>MOLECULE
I74
   59    62     1     0     0
SMALL
No Charge or Current Charge


@<TRIPOS>ATOM
      1 O1           5.8730     0.5820    -1.8330 oh         1 I74      -0.660000
      2 C42          5.7150     1.1610    -0.5270 c6         1 I74       0.173300
      3 C43          6.6580     2.3970    -0.3670 c6         1 I74       0.122800
      4 N44          6.4840     3.0810     0.9410 n7         1 I74      -0.860400
      5 C45          5.0860     3.5130     1.1690 c6         1 I74       0.156800
      6 C46          4.1090     2.3160     1.0790 c6         1 I74      -0.075400
      7 C41          4.2300     1.5720    -0.2870 c6         1 I74      -0.075700
      8 C40          3.2780     0.3400    -0.3620 c3         1 I74       0.234800
      9 N18          1.8560     0.7300    -0.3030 nu         1 I74      -0.931100
     10 C5           0.7890    -0.0920    -0.1880 cc         1 I74       0.683900
     11 C4          -0.4670     0.5480    -0.2070 cc         1 I74      -0.398000
     12 C3          -1.6180    -0.1870    -0.0970 cd         1 I74       0.429000
     13 N2          -1.4770    -1.5800     0.0320 na         1 I74       0.042900
     14 N1          -2.4830    -2.5300     0.1580 nc         1 I74      -0.627100
     15 C9          -1.7460    -3.6450     0.2400 cd         1 I74       0.414500
     16 C8          -0.3290    -3.4360     0.1720 cd         1 I74      -0.323800
     17 C26          0.7490    -4.4920     0.2370 c3         1 I74       0.030500
     18 C28          0.7270    -5.2230     1.5960 c3         1 I74      -0.082600
     19 C27          0.6340    -5.4770    -0.9440 c3         1 I74      -0.082600
     20 C7          -0.1750    -2.0450     0.0320 cd         1 I74       0.469500
     21 N6           1.0270    -1.3700    -0.0730 nd         1 I74      -0.786000
     22 N10         -2.8710     0.3650    -0.1080 nu         1 I74      -0.966200
     23 C11         -3.2300     1.7820    -0.1920 c3         1 I74       0.285100
     24 C12         -4.7430     1.9280    -0.1200 ca         1 I74      -0.123300
     25 C17         -5.3840     2.0830     1.1260 ca         1 I74      -0.088000
     26 C16         -6.7820     2.2170     1.1910 ca         1 I74      -0.112000
     27 C15         -7.5480     2.1970     0.0130 ca         1 I74      -0.095000
     28 C14         -6.9140     2.0410    -1.2310 ca         1 I74      -0.112000
     29 C13         -5.5160     1.9070    -1.2980 ca         1 I74      -0.088000
     30 H1           6.8060     0.2820    -1.8990 ho         1 I74       0.446000
     31 H2           5.9940     0.4230     0.2410 h1         1 I74       0.048700
     32 H3           7.7050     2.0730    -0.4650 h1         1 I74       0.035700
     33 H4           6.4570     3.1140    -1.1780 h1         1 I74       0.035700
     34 H5           7.0960     3.9080     0.9720 hn         1 I74       0.415000
     35 H7           5.0050     3.9830     2.1610 h1         1 I74       0.031200
     36 H8           4.8090     4.2700     0.4190 h1         1 I74       0.031200
     37 H9           4.3120     1.6190     1.9040 hc         1 I74       0.053700
     38 H10          3.0840     2.6820     1.2290 hc         1 I74       0.053700
     39 H11          3.9280     2.2570    -1.0920 hc         1 I74       0.053700
     40 H12          3.4640    -0.2010    -1.3000 h1         1 I74       0.064700
     41 H13          3.5230    -0.3430     0.4650 h1         1 I74       0.064700
     42 H14          1.6150     1.7050    -0.4440 hn         1 I74       0.486000
     43 H15         -0.5060     1.6240    -0.3090 ha         1 I74       0.129000
     44 H16         -2.2580    -4.5940     0.3490 h4         1 I74       0.038800
     45 H17          1.7310    -4.0070     0.1530 hc         1 I74       0.063700
     46 H18         -0.2180    -5.7610     1.7370 hc         1 I74       0.029200
     47 H19          1.5480    -5.9490     1.6580 hc         1 I74       0.029200
     48 H20          0.8430    -4.5080     2.4190 hc         1 I74       0.029200
     49 H21          0.6840    -4.9390    -1.8990 hc         1 I74       0.029200
     50 H22          1.4530    -6.2060    -0.9220 hc         1 I74       0.029200
     51 H23         -0.3150    -6.0260    -0.9080 hc         1 I74       0.029200
     52 H24         -3.6250    -0.3180    -0.0060 hn         1 I74       0.534000
     53 H25         -2.7670     2.3420     0.6330 h1         1 I74       0.050200
     54 H26         -2.8630     2.2130    -1.1340 h1         1 I74       0.050200
     55 H27         -4.7990     2.0970     2.0430 ha         1 I74       0.117000
     56 H28         -7.2720     2.3360     2.1560 ha         1 I74       0.117000
     57 H29         -8.6300     2.3000     0.0650 ha         1 I74       0.116000
     58 H30         -7.5060     2.0230    -2.1440 ha         1 I74       0.117000
     59 H31         -5.0340     1.7840    -2.2660 ha         1 I74       0.117000
@<TRIPOS>BOND
     1     1     2 1   
     2     1    30 1   
     3     2     3 1   
     4     2     7 1   
     5     2    31 1   
     6     3     4 1   
     7     3    32 1   
     8     3    33 1   
     9     4     5 1   
    10     4    34 1   
    11     5     6 1   
    12     5    35 1   
    13     5    36 1   
    14     6     7 1   
    15     6    37 1   
    16     6    38 1   
    17     7     8 1   
    18     7    39 1   
    19     8     9 1   
    20     8    40 1   
    21     8    41 1   
    22     9    10 1   
    23     9    42 1   
    24    10    11 1   
    25    10    21 2   
    26    11    12 2   
    27    11    43 1   
    28    12    13 1   
    29    12    22 1   
    30    13    14 1   
    31    13    20 1   
    32    14    15 2   
    33    15    16 1   
    34    15    44 1   
    35    16    17 1   
    36    16    20 2   
    37    17    18 1   
    38    17    19 1   
    39    17    45 1   
    40    18    46 1   
    41    18    47 1   
    42    18    48 1   
    43    19    49 1   
    44    19    50 1   
    45    19    51 1   
    46    20    21 1   
    47    22    23 1   
    48    22    52 1   
    49    23    24 1   
    50    23    53 1   
    51    23    54 1   
    52    24    25 ar  
    53    24    29 ar  
    54    25    26 ar  
    55    25    55 1   
    56    26    27 ar  
    57    26    56 1   
    58    27    28 ar  
    59    27    57 1   
    60    28    29 ar  
    61    28    58 1   
    62    29    59 1   
@<TRIPOS>SUBSTRUCTURE
     1 I74         1 TEMP              0 ****  ****    0 ROOT
