@<TRIPOS>MOLECULE
I75
   22    22     1     0     0
SMALL
No Charge or Current Charge


@<TRIPOS>ATOM
      1 CAA         -2.2140     2.5130     0.0950 c3         1 I75       0.155900
      2 CAB          3.7630    -0.6490    -0.0400 c3         1 I75      -0.195100
      3 OAC          2.8040     1.5330    -0.0290 o          1 I75      -0.534100
      4 CAE         -0.4320    -2.0650     0.0770 ca         1 I75      -0.147000
      5 CAF          0.8920    -1.5960     0.0400 ca         1 I75      -0.061000
      6 CAG          0.0730     0.7000     0.0470 ca         1 I75      -0.099000
      7 OAH         -2.3520     1.0790     0.1070 os         1 I75      -0.370100
      8 CAJ         -1.5000    -1.1590     0.0990 ca         1 I75       0.152100
      9 CAK          1.1630    -0.2060     0.0240 ca         1 I75      -0.186600
     10 CAL         -1.2590     0.2270     0.0840 ca         1 I75       0.029100
     11 HAA         -1.6960     2.8480    -0.8140 h1         1 I75       0.044700
     12 HAAA        -3.2010     2.9910     0.1170 h1         1 I75       0.044700
     13 HAAB        -1.6500     2.8590     0.9700 h1         1 I75       0.044700
     14 HAB          4.7330    -0.1390    -0.0690 hc         1 I75       0.060700
     15 HABA         3.6890    -1.3210     0.8220 hc         1 I75       0.060700
     16 HABB         3.6450    -1.3310    -0.8900 hc         1 I75       0.060700
     17 HOAD        -3.3600    -0.8240     0.1450 ho         1 I75       0.487000
     18 HAE         -0.6290    -3.1340     0.0890 ha         1 I75       0.134000
     19 HAF          1.6960    -2.3280     0.0240 ha         1 I75       0.118000
     20 HAG          0.2750     1.7680     0.0350 ha         1 I75       0.138000
     21 OAD         -2.7830    -1.6210     0.1350 oh         1 I75      -0.528100
     22 CAI          2.5850     0.3270    -0.0160 c          1 I75       0.588700
@<TRIPOS>BOND
     1     1     7 1   
     2     1    11 1   
     3     1    12 1   
     4     1    13 1   
     5     2    14 1   
     6     2    15 1   
     7     2    16 1   
     8     2    22 1   
     9     3    22 2   
    10     4     5 ar  
    11     4     8 ar  
    12     4    18 1   
    13     5     9 ar  
    14     5    19 1   
    15     6     9 ar  
    16     6    10 ar  
    17     6    20 1   
    18     7    10 1   
    19     8    10 ar  
    20     8    21 1   
    21     9    22 1   
    22    17    21 1   
@<TRIPOS>SUBSTRUCTURE
     1 I75         1 TEMP              0 ****  ****    0 ROOT
