@<TRIPOS>MOLECULE
I75
   22    22     1     0     0
SMALL
bcc


@<TRIPOS>ATOM
      1 CAA         -2.1510     2.4500     0.0960 c3         1 I75       0.132700
      2 CAB          3.6780    -0.6580    -0.0360 c3         1 I75      -0.195100
      3 OAC          2.7500     1.5250    -0.0350 o          1 I75      -0.534100
      4 CAE         -0.4300    -2.0170     0.0740 ca         1 I75      -0.165000
      5 CAF          0.8790    -1.5610     0.0370 ca         1 I75      -0.079000
      6 CAG          0.0880     0.7120     0.0470 ca         1 I75      -0.117000
      7 OAH         -2.3160     1.0450     0.1110 os         1 I75      -0.346900
      8 CAJ         -1.4840    -1.1190     0.0970 ca         1 I75       0.152100
      9 CAK          1.1550    -0.1980     0.0220 ca         1 I75      -0.186600
     10 CAL         -1.2150     0.2660     0.0840 ca         1 I75       0.029100
     11 HAA         -1.6370     2.7850    -0.8080 h1         1 I75       0.044700
     12 HAAA        -3.1500     2.8780     0.1150 h1         1 I75       0.044700
     13 HAAB        -1.5970     2.7990     0.9700 h1         1 I75       0.044700
     14 HAB          4.6290    -0.1320    -0.0780 hc         1 I75       0.060700
     15 HABA         3.6660    -1.2830     0.8580 hc         1 I75       0.060700
     16 HABB         3.6090    -1.3250    -0.8970 hc         1 I75       0.060700
     17 HOAD        -3.3680    -0.8450     0.1420 ho         1 I75       0.448000
     18 HAE         -0.6400    -3.0790     0.0850 ha         1 I75       0.152000
     19 HAF          1.6750    -2.2910     0.0200 ha         1 I75       0.136000
     20 HAG          0.3020     1.7730     0.0370 ha         1 I75       0.156000
     21 OAD         -2.7400    -1.5790     0.1310 oh         1 I75      -0.489100
     22 CAI          2.5390     0.3270    -0.0190 c          1 I75       0.588700
@<TRIPOS>BOND
     1     1     7 1   
     2     1    11 1   
     3     1    12 1   
     4     1    13 1   
     5     2    14 1   
     6     2    15 1   
     7     2    16 1   
     8     2    22 1   
     9     3    22 2   
    10     4     5 ar  
    11     4     8 ar  
    12     4    18 1   
    13     5     9 ar  
    14     5    19 1   
    15     6     9 ar  
    16     6    10 ar  
    17     6    20 1   
    18     7    10 1   
    19     8    10 ar  
    20     8    21 1   
    21     9    22 1   
    22    17    21 1   
@<TRIPOS>SUBSTRUCTURE
     1 I75         1 TEMP              0 ****  ****    0 ROOT
