@<TRIPOS>MOLECULE
I76
   54    58     1     0     0
SMALL
No Charge or Current Charge


@<TRIPOS>ATOM
      1 CAA         17.6370    17.8780    62.8820 c3         1 I76      -0.103100
      2 CBE         17.5300    16.5180    62.1560 c3         1 I76       0.112300
      3 CAB         17.3520    16.6930    60.6320 c3         1 I76      -0.103100
      4 NBF         16.4700    15.6620    62.7370 na         1 I76      -0.031100
      5 NAS         15.1220    16.0290    62.7960 nc         1 I76      -0.516100
      6 C4          16.6890    14.3850    63.2330 ca         1 I76       0.164500
      7 N3          17.7970    13.6210    63.3130 nb         1 I76      -0.236000
      8 C2          17.6120    12.3700    63.7980 ca         1 I76       0.193900
      9 N1          16.4330    11.8170    64.1740 nb         1 I76      -0.312000
     10 C6          15.3530    12.6030    64.0790 ca         1 I76       0.454900
     11 NAC         14.1800    12.0160    64.3920 nv         1 I76      -1.073900
     12 C5          15.4700    13.9160    63.6330 ca         1 I76      -0.381900
     13 CAZ         14.5260    14.9790    63.3740 cd         1 I76       0.434500
     14 CAY         13.0860    14.9760    63.6890 ca         1 I76      -0.104900
     15 CAO         12.6290    14.6030    64.9700 ca         1 I76      -0.088000
     16 CAI         12.1550    15.4540    62.7440 ca         1 I76      -0.070000
     17 CAK         10.7840    15.5000    63.0510 ca         1 I76      -0.113000
     18 CBA         10.3300    15.0930    64.3180 ca         1 I76       0.007000
     19 CAN          8.9570    15.1390    64.6270 ca         1 I76      -0.202000
     20 CBB         11.2580    14.6470    65.2830 ca         1 I76      -0.073000
     21 CAJ         10.8080    14.2550    66.5570 ca         1 I76      -0.068000
     22 CAH          9.4370    14.3020    66.8620 ca         1 I76      -0.125000
     23 CAW          8.5080    14.7410    65.9050 ca         1 I76       0.147100
     24 OAT          7.1760    14.7650    66.2660 os         1 I76      -0.348100
     25 CAP          6.1450    15.1990    65.3620 c3         1 I76       0.208900
     26 CAV          4.8060    15.1030    66.0800 ca         1 I76      -0.086300
     27 CAM          4.3650    16.1580    66.9030 ca         1 I76      -0.085000
     28 CAU          3.1300    16.0690    67.5670 ca         1 I76       0.120000
     29 ClD          2.5880    17.3920    68.5920 cl         1 I76      -0.209000
     30 CAF          2.3270    14.9270    67.4140 ca         1 I76      -0.092000
     31 CAE          2.7610    13.8700    66.5960 ca         1 I76      -0.106000
     32 CAG          3.9980    13.9570    65.9320 ca         1 I76      -0.081000
     33 H1          17.8010    17.7270    63.9560 hc         1 I76       0.048700
     34 H2          18.4780    18.4600    62.4880 hc         1 I76       0.048700
     35 H3          16.7210    18.4650    62.7520 hc         1 I76       0.048700
     36 H4          18.4870    16.0020    62.3080 h1         1 I76       0.081700
     37 H5          18.1840    17.2670    60.2080 hc         1 I76       0.048700
     38 H6          17.3250    15.7160    60.1340 hc         1 I76       0.048700
     39 H7          16.4180    17.2210    60.4050 hc         1 I76       0.048700
     40 H8          18.4950    11.7390    63.8730 h5         1 I76       0.046100
     41 H9          14.1650    11.0030    64.4720 hn         1 I76       0.505500
     42 H10         13.3180    12.4650    64.1000 hn         1 I76       0.505500
     43 H11         13.3450    14.2870    65.7270 ha         1 I76       0.120000
     44 H12         12.4940    15.7800    61.7630 ha         1 I76       0.127000
     45 H13         10.0790    15.8580    62.3050 ha         1 I76       0.116000
     46 H14          8.2600    15.4860    63.8710 ha         1 I76       0.119000
     47 H15         11.5160    13.9120    67.3080 ha         1 I76       0.119000
     48 H16          9.0910    13.9970    67.8460 ha         1 I76       0.131000
     49 H17          6.1270    14.5680    64.4640 h1         1 I76       0.047200
     50 H18          6.3160    16.2370    65.0480 h1         1 I76       0.047200
     51 H19          4.9800    17.0460    67.0300 ha         1 I76       0.130000
     52 H20          1.3710    14.8620    67.9300 ha         1 I76       0.131000
     53 H21          2.1420    12.9830    66.4780 ha         1 I76       0.121000
     54 H22          4.3280    13.1330    65.3030 ha         1 I76       0.125000
@<TRIPOS>BOND
     1     1     2 1   
     2     1    33 1   
     3     1    34 1   
     4     1    35 1   
     5     2     3 1   
     6     2     4 1   
     7     2    36 1   
     8     3    37 1   
     9     3    38 1   
    10     3    39 1   
    11     4     5 1   
    12     4     6 1   
    13     5    13 2   
    14     6     7 ar  
    15     6    12 ar  
    16     7     8 ar  
    17     8     9 ar  
    18     8    40 1   
    19     9    10 ar  
    20    10    11 1   
    21    10    12 ar  
    22    11    41 1   
    23    11    42 1   
    24    12    13 1   
    25    13    14 1   
    26    14    15 ar  
    27    14    16 ar  
    28    15    20 ar  
    29    15    43 1   
    30    16    17 ar  
    31    16    44 1   
    32    17    18 ar  
    33    17    45 1   
    34    18    19 ar  
    35    18    20 ar  
    36    19    23 ar  
    37    19    46 1   
    38    20    21 ar  
    39    21    22 ar  
    40    21    47 1   
    41    22    23 ar  
    42    22    48 1   
    43    23    24 1   
    44    24    25 1   
    45    25    26 1   
    46    25    49 1   
    47    25    50 1   
    48    26    27 ar  
    49    26    32 ar  
    50    27    28 ar  
    51    27    51 1   
    52    28    29 1   
    53    28    30 ar  
    54    30    31 ar  
    55    30    52 1   
    56    31    32 ar  
    57    31    53 1   
    58    32    54 1   
@<TRIPOS>SUBSTRUCTURE
     1 I76         1 TEMP              0 ****  ****    0 ROOT
