@<TRIPOS>MOLECULE
I76
   54    58     1     0     0
SMALL
abcg2


@<TRIPOS>ATOM
      1 CAA         17.6120    17.6680    63.0920 c3         1 I76      -0.103100
      2 CBE         17.4100    16.5060    62.1240 c3         1 I76       0.112300
      3 CAB         17.0000    16.9620    60.7280 c3         1 I76      -0.103100
      4 NBF         16.4340    15.5550    62.6610 na         1 I76      -0.031100
      5 NAS         15.1340    15.9100    62.8430 nc         1 I76      -0.516100
      6 C4          16.6600    14.2950    63.0970 ca         1 I76       0.164500
      7 N3          17.8250    13.6220    63.0710 nb         1 I76      -0.236000
      8 C2          17.7030    12.3860    63.5360 ca         1 I76       0.193900
      9 N1          16.5990    11.7650    63.9700 nb         1 I76      -0.312000
     10 C6          15.4350    12.4420    63.9810 ca         1 I76       0.454900
     11 NAC         14.3370    11.7800    64.3720 nv         1 I76      -1.073900
     12 C5          15.4320    13.8000    63.5750 ca         1 I76      -0.381900
     13 CAZ         14.5110    14.8770    63.3930 cd         1 I76       0.434500
     14 CAY         13.0850    14.9620    63.7350 ca         1 I76      -0.104900
     15 CAO         12.6150    14.4850    64.9410 ca         1 I76      -0.088000
     16 CAI         12.1720    15.5640    62.8320 ca         1 I76      -0.070000
     17 CAK         10.8400    15.6610    63.1390 ca         1 I76      -0.113000
     18 CBA         10.3340    15.1640    64.3650 ca         1 I76       0.007000
     19 CAN          8.9590    15.2480    64.6970 ca         1 I76      -0.202000
     20 CBB         11.2480    14.5690    65.2820 ca         1 I76      -0.073000
     21 CAJ         10.7490    14.0850    66.5190 ca         1 I76      -0.068000
     22 CAH          9.4210    14.1780    66.8240 ca         1 I76      -0.125000
     23 CAW          8.5120    14.7620    65.9040 ca         1 I76       0.147100
     24 OAT          7.2210    14.7940    66.3260 os         1 I76      -0.348100
     25 CAP          6.2310    15.3180    65.4280 c3         1 I76       0.208900
     26 CAV          4.8900    15.1980    66.0920 ca         1 I76      -0.086300
     27 CAM          4.1410    16.3400    66.3610 ca         1 I76      -0.085000
     28 CAU          2.8960    16.2110    66.9640 ca         1 I76       0.120000
     29 CLD          1.9580    17.6540    67.2960 cl         1 I76      -0.209000
     30 CAF          2.3830    14.9720    67.3170 ca         1 I76      -0.092000
     31 CAE          3.1410    13.8360    67.0470 ca         1 I76      -0.106000
     32 CAG          4.3820    13.9450    66.4350 ca         1 I76      -0.081000
     33 H1          17.9070    17.3040    64.0770 hc         1 I76       0.048700
     34 H2          18.3930    18.3300    62.7170 hc         1 I76       0.048700
     35 H3          16.6920    18.2460    63.1950 hc         1 I76       0.048700
     36 H4          18.3330    15.9310    62.0560 h1         1 I76       0.081700
     37 H5          17.7770    17.6040    60.3110 hc         1 I76       0.048700
     38 H6          16.8630    16.1060    60.0660 hc         1 I76       0.048700
     39 H7          16.0680    17.5290    60.7640 hc         1 I76       0.048700
     40 H8          18.6110    11.7910    63.5600 h5         1 I76       0.046100
     41 H9          14.4090    10.7970    64.5820 hn         1 I76       0.505500
     42 H10         13.4260    12.1990    64.3240 hn         1 I76       0.505500
     43 H11         13.3010    14.0570    65.6630 ha         1 I76       0.120000
     44 H12         12.5420    15.9400    61.8880 ha         1 I76       0.127000
     45 H13         10.1520    16.1160    62.4360 ha         1 I76       0.116000
     46 H14          8.2850    15.7030    63.9860 ha         1 I76       0.119000
     47 H15         11.4390    13.6360    67.2230 ha         1 I76       0.119000
     48 H16          9.0330    13.8090    67.7650 ha         1 I76       0.131000
     49 H17          6.2570    14.7440    64.4970 h1         1 I76       0.047200
     50 H18          6.4560    16.3620    65.1980 h1         1 I76       0.047200
     51 H19          4.5220    17.3190    66.1040 ha         1 I76       0.130000
     52 H20          1.4140    14.8950    67.7890 ha         1 I76       0.131000
     53 H21          2.7500    12.8620    67.3140 ha         1 I76       0.121000
     54 H22          4.9630    13.0560    66.2230 ha         1 I76       0.125000
@<TRIPOS>BOND
     1     1     2 1   
     2     1    33 1   
     3     1    34 1   
     4     1    35 1   
     5     2     3 1   
     6     2     4 1   
     7     2    36 1   
     8     3    37 1   
     9     3    38 1   
    10     3    39 1   
    11     4     5 1   
    12     4     6 1   
    13     5    13 2   
    14     6     7 ar  
    15     6    12 ar  
    16     7     8 ar  
    17     8     9 ar  
    18     8    40 1   
    19     9    10 ar  
    20    10    11 1   
    21    10    12 ar  
    22    11    41 1   
    23    11    42 1   
    24    12    13 1   
    25    13    14 1   
    26    14    15 ar  
    27    14    16 ar  
    28    15    20 ar  
    29    15    43 1   
    30    16    17 ar  
    31    16    44 1   
    32    17    18 ar  
    33    17    45 1   
    34    18    19 ar  
    35    18    20 ar  
    36    19    23 ar  
    37    19    46 1   
    38    20    21 ar  
    39    21    22 ar  
    40    21    47 1   
    41    22    23 ar  
    42    22    48 1   
    43    23    24 1   
    44    24    25 1   
    45    25    26 1   
    46    25    49 1   
    47    25    50 1   
    48    26    27 ar  
    49    26    32 ar  
    50    27    28 ar  
    51    27    51 1   
    52    28    29 1   
    53    28    30 ar  
    54    30    31 ar  
    55    30    52 1   
    56    31    32 ar  
    57    31    53 1   
    58    32    54 1   
@<TRIPOS>SUBSTRUCTURE
     1 I76         1 TEMP              0 ****  ****    0 ROOT
