@<TRIPOS>MOLECULE
I77
   30    31     1     0     0
SMALL
abcg2


@<TRIPOS>ATOM
      1 C11          4.1550     4.1600    23.9870 ca         1 I77       0.357900
      2 C12          3.0420     4.2160    23.1470 ca         1 I77      -0.199600
      3 C13          3.1310     4.1440    21.6520 c          1 I77       0.636700
      4 C17          1.7860     4.2870    23.7450 ca         1 I77      -0.032000
      5 C18          1.6920     4.3280    25.1230 ca         1 I77      -0.125000
      6 C03          2.6350     4.4450    30.1020 ca         1 I77      -0.196600
      7 C04          3.8850     4.2900    29.5080 ca         1 I77      -0.030000
      8 C05          3.9810     4.2360    28.1300 ca         1 I77      -0.126000
      9 C06          1.5250     4.5110    29.2580 ca         1 I77       0.361900
     10 C08          2.8140     4.3250    27.3660 cp         1 I77       0.302000
     11 C09          2.8630     4.2800    25.8830 cp         1 I77       0.302000
     12 N01          1.4630     5.0980    32.1230 nt         1 I77      -0.602000
     13 N07          1.6060     4.4510    27.9340 nb         1 I77      -0.676000
     14 N10          4.0720     4.1870    25.3140 nb         1 I77      -0.675000
     15 N14          4.2360     4.7140    21.1210 ns         1 I77      -0.412300
     16 N15          4.4780     4.6930    19.7400 n8         1 I77      -0.715200
     17 O16          2.2450     3.6030    20.9970 o          1 I77      -0.557100
     18 O19          3.4190     3.9790    32.2930 o          1 I77      -0.601100
     19 H111         5.1540     4.0620    23.5770 h4         1 I77       0.019100
     20 H171         0.8980     4.3120    23.1270 ha         1 I77       0.145000
     21 H181         0.7350     4.3950    25.6170 ha         1 I77       0.152000
     22 H041         4.7670     4.2170    30.1300 ha         1 I77       0.146000
     23 H051         4.9360     4.1270    27.6380 ha         1 I77       0.152000
     24 H061         0.5230     4.5920    29.6650 h4         1 I77       0.019100
     25 H011         1.3790     5.1520    33.1260 hn         1 I77       0.318500
     26 H012         0.8070     5.6210    31.5670 hn         1 I77       0.318500
     27 H141         4.8620     5.2390    21.7140 hn         1 I77       0.302500
     28 H1           4.4640     5.6460    19.3890 hn         1 I77       0.400000
     29 H2           5.4060     4.3160    19.5820 hn         1 I77       0.400000
     30 C02          2.5410     4.4880    31.5960 c          1 I77       0.616700
@<TRIPOS>BOND
     1     1     2 ar  
     2     1    14 ar  
     3     1    19 1   
     4     2     3 1   
     5     2     4 ar  
     6     3    15 1   
     7     3    17 2   
     8     4     5 ar  
     9     4    20 1   
    10     5    11 ar  
    11     5    21 1   
    12     6     7 ar  
    13     6     9 ar  
    14     6    30 1   
    15     7     8 ar  
    16     7    22 1   
    17     8    10 ar  
    18     8    23 1   
    19     9    13 ar  
    20     9    24 1   
    21    10    11 1   
    22    10    13 ar  
    23    11    14 ar  
    24    12    25 1   
    25    12    26 1   
    26    12    30 1   
    27    15    16 1   
    28    15    27 1   
    29    16    28 1   
    30    16    29 1   
    31    18    30 2   
@<TRIPOS>SUBSTRUCTURE
     1 I77         1 TEMP              0 ****  ****    0 ROOT
