@<TRIPOS>MOLECULE
I77
   30    31     1     0     0
SMALL
No Charge or Current Charge


@<TRIPOS>ATOM
      1 C11          4.0800     4.4400    23.8930 ca         1 I77       0.357900
      2 C12          2.9340     4.4300    23.0770 ca         1 I77      -0.199600
      3 C13          3.0350     4.4110    21.5760 c          1 I77       0.636700
      4 C17          1.6750     4.4400    23.7110 ca         1 I77      -0.032000
      5 C18          1.6240     4.4580    25.1130 ca         1 I77      -0.125000
      6 C03          2.6960     4.5240    30.1950 ca         1 I77      -0.196600
      7 C04          3.9550     4.5140    29.5620 ca         1 I77      -0.030000
      8 C05          4.0060     4.4960    28.1600 ca         1 I77      -0.126000
      9 C06          1.5500     4.5140    29.3800 ca         1 I77       0.361900
     10 C08          2.8070     4.4870    27.3990 cp         1 I77       0.302000
     11 C09          2.8220     4.4670    25.8740 cp         1 I77       0.302000
     12 N01          1.3680     4.5520    32.2600 nt         1 I77      -0.602000
     13 N07          1.6020     4.4970    28.0290 nb         1 I77      -0.676000
     14 N10          4.0280     4.4580    25.2440 nb         1 I77      -0.675000
     15 N14          4.3220     4.4020    21.0210 ns         1 I77      -0.412300
     16 N15          4.6210     4.3830    19.5890 n8         1 I77      -0.715200
     17 O16          2.0350     4.4020    20.8670 o          1 I77      -0.557100
     18 O19          3.5770     4.5520    32.4130 o          1 I77      -0.601100
     19 H111         5.0830     4.4340    23.4700 h4         1 I77       0.019100
     20 H171         0.7520     4.4330    23.1330 ha         1 I77       0.145000
     21 H181         0.6590     4.4650    25.6110 ha         1 I77       0.152000
     22 H041         4.8770     4.5210    30.1420 ha         1 I77       0.146000
     23 H051         4.9710     4.4880    27.6610 ha         1 I77       0.152000
     24 H061         0.5480     4.5210    29.8070 h4         1 I77       0.019100
     25 H011         1.2970     4.5660    33.2670 hn         1 I77       0.318500
     26 H012         0.5350     4.5460    31.6920 hn         1 I77       0.318500
     27 H141         5.0990     4.4100    21.6820 hn         1 I77       0.302500
     28 H1           5.1750     5.2060    19.3060 hn         1 I77       0.400000
     29 H2           5.1740     3.5530    19.3270 hn         1 I77       0.400000
     30 C02          2.5930     4.5440    31.6920 c          1 I77       0.616700
@<TRIPOS>BOND
     1     1     2 ar  
     2     1    14 ar  
     3     1    19 1   
     4     2     3 1   
     5     2     4 ar  
     6     3    15 1   
     7     3    17 2   
     8     4     5 ar  
     9     4    20 1   
    10     5    11 ar  
    11     5    21 1   
    12     6     7 ar  
    13     6     9 ar  
    14     6    30 1   
    15     7     8 ar  
    16     7    22 1   
    17     8    10 ar  
    18     8    23 1   
    19     9    13 ar  
    20     9    24 1   
    21    10    11 1   
    22    10    13 ar  
    23    11    14 ar  
    24    12    25 1   
    25    12    26 1   
    26    12    30 1   
    27    15    16 1   
    28    15    27 1   
    29    16    28 1   
    30    16    29 1   
    31    18    30 2   
@<TRIPOS>SUBSTRUCTURE
     1 I77         1 TEMP              0 ****  ****    0 ROOT
