@<TRIPOS>MOLECULE
I78
   16    15     1     0     0
SMALL
bcc


@<TRIPOS>ATOM
      1 N            6.7260    -1.1080    49.4870 ns         1 I78      -0.539900
      2 CA           7.0660    -2.1880    50.3800 c3         1 I78      -0.032300
      3 C            8.5980    -2.2120    50.6210 c          1 I78       0.922600
      4 OXT          9.0200    -3.1890    51.2650 o          1 I78      -0.853300
      5 CB           6.3220    -2.0740    51.7110 c3         1 I78      -0.074100
      6 O            9.2610    -1.2570    50.1710 o          1 I78      -0.853300
      7 CAC          5.6050    -1.0220    48.7690 c          1 I78       0.507100
      8 CAJ          5.5400     0.2450    47.8580 c          1 I78       0.867600
      9 OAE          4.7020    -1.8520    48.8060 o          1 I78      -0.703100
     10 OAI          6.5290     1.0010    47.9040 o          1 I78      -0.830300
     11 OAK          4.5060     0.3660    47.1880 o          1 I78      -0.830300
     12 H            7.4340    -0.4040    49.3360 hn         1 I78       0.353500
     13 HA           6.7840    -3.1360    49.9110 h1         1 I78       0.033700
     14 HB1          6.5540    -2.9170    52.3600 hc         1 I78       0.010700
     15 HB3          6.6010    -1.1570    52.2330 hc         1 I78       0.010700
     16 HB2          5.2430    -2.0580    51.5560 hc         1 I78       0.010700
@<TRIPOS>BOND
     1     1     2 1   
     2     1     7 1   
     3     1    12 1   
     4     2     3 1   
     5     2     5 1   
     6     2    13 1   
     7     3     4 1   
     8     3     6 1   
     9     5    14 1   
    10     5    15 1   
    11     5    16 1   
    12     7     8 1   
    13     7     9 2   
    14     8    10 1   
    15     8    11 1   
@<TRIPOS>SUBSTRUCTURE
     1 I78         1 TEMP              0 ****  ****    0 ROOT
