@<TRIPOS>MOLECULE
I78
   16    15     1     0     0
SMALL
No Charge or Current Charge


@<TRIPOS>ATOM
      1 N            6.7440    -1.1440    49.4690 ns         1 I78      -0.472900
      2 CA           7.0840    -2.2060    50.4470 c3         1 I78      -0.032300
      3 C            8.6300    -2.2720    50.6800 c          1 I78       0.712000
      4 OXT          9.1690    -3.3700    50.6730 o          1 I78      -0.748000
      5 CB           6.3220    -2.0180    51.7790 c3         1 I78      -0.074100
      6 O            9.2580    -1.2230    50.7490 o          1 I78      -0.748000
      7 CAC          5.5770    -1.0640    48.7180 c          1 I78       0.440100
      8 CAJ          5.4890     0.2630    47.7510 c          1 I78       0.657000
      9 OAE          4.7030    -1.9350    48.7870 o          1 I78      -0.703100
     10 OAI          6.4330     1.0530    47.7610 o          1 I78      -0.725000
     11 OAK          4.4920     0.4280    47.0500 o          1 I78      -0.725000
     12 H            7.4090    -0.3860    49.3360 hn         1 I78       0.353500
     13 HA           6.7820    -3.1680    50.0140 h1         1 I78       0.033700
     14 HB1          6.5730    -2.8230    52.4790 hc         1 I78       0.010700
     15 HB3          6.5870    -1.0620    52.2470 hc         1 I78       0.010700
     16 HB2          5.2380    -2.0340    51.6170 hc         1 I78       0.010700
@<TRIPOS>BOND
     1     1     2 1   
     2     1     7 1   
     3     1    12 1   
     4     2     3 1   
     5     2     5 1   
     6     2    13 1   
     7     3     4 1   
     8     3     6 1   
     9     5    14 1   
    10     5    15 1   
    11     5    16 1   
    12     7     8 1   
    13     7     9 2   
    14     8    10 1   
    15     8    11 1   
@<TRIPOS>SUBSTRUCTURE
     1 I78         1 TEMP              0 ****  ****    0 ROOT
