@<TRIPOS>MOLECULE
I79
   54    58     1     0     0
SMALL
bcc


@<TRIPOS>ATOM
      1 C1          -5.2130    -0.0010    -0.6300 ca         1 I79      -0.225000
      2 C2          -3.8880     0.4230    -0.5610 cp         1 I79       0.065000
      3 C3          -3.5430     1.7030    -0.9870 ca         1 I79      -0.225000
      4 C4          -4.5220     2.5720    -1.4810 ca         1 I79       0.173100
      5 C5          -5.8480     2.1410    -1.5430 ca         1 I79      -0.272000
      6 C6          -6.2020     0.8570    -1.1230 ca         1 I79       0.173100
      7 N7          -7.5240     0.4600    -1.1350 nv         1 I79      -0.825700
      8 N8          -4.1670     3.8160    -1.9620 nv         1 I79      -0.825700
      9 C9          -2.8410    -0.4850    -0.0450 cp         1 I79      -0.042000
     10 C10         -2.8610    -1.8560    -0.3760 ca         1 I79      -0.172000
     11 C11         -1.8830    -2.7220     0.0690 ca         1 I79      -0.038000
     12 C12         -0.8490    -2.2340     0.8720 ca         1 I79      -0.062800
     13 C13         -0.8330    -0.8600     1.1990 ca         1 I79      -0.047200
     14 C14         -1.8250     0.0130     0.7590 ca         1 I79      -0.157000
     15 C15          0.2900    -2.8400     1.4900 cc         1 I79      -0.022400
     16 C16          0.9300    -1.8310     2.1460 cd         1 I79      -0.159100
     17 N17          0.2660    -0.6370     1.9830 na         1 I79      -0.079400
     18 C18          0.6570    -4.2800     1.4680 c3         1 I79      -0.166200
     19 C19          1.0650    -4.8500     0.0880 c          1 I79       0.930600
     20 O20          1.1350    -4.0620    -0.8700 o          1 I79      -0.833300
     21 O21          1.2980    -6.0770     0.0700 o          1 I79      -0.833300
     22 C22          0.7460     0.6350     2.4810 c3         1 I79       0.121500
     23 C23          2.0240     1.0560     1.8170 cc         1 I79      -0.092400
     24 C24          2.0740     1.6010     0.4840 ca         1 I79      -0.040800
     25 C25          3.3870     1.8740     0.0680 ca         1 I79      -0.029100
     26 S26          4.5260     1.4610     1.3030 ss         1 I79      -0.087500
     27 C27          3.2580     0.9300     2.3710 cd         1 I79      -0.022600
     28 C28          3.6450     0.3840     3.7030 c3         1 I79      -0.033900
     29 C29          3.6630     2.4160    -1.1820 ca         1 I79      -0.094000
     30 C30          2.6110     2.6940    -2.0330 ca         1 I79      -0.117000
     31 C31          1.3030     2.4270    -1.6210 ca         1 I79       0.024400
     32 C32          1.0180     1.8860    -0.3870 ca         1 I79      -0.071000
     33 CL33        -0.0050     2.7930    -2.7010 cl         1 I79      -0.115400
     34 H1          -5.4900    -0.9860    -0.2740 ha         1 I79       0.136500
     35 H3          -2.5060     2.0180    -0.9820 ha         1 I79       0.136500
     36 H5          -6.6130     2.8100    -1.9250 ha         1 I79       0.117000
     37 HN7         -7.6710    -0.5370    -1.1700 hn         1 I79       0.383300
     38 HN7A        -8.1140     0.9400    -1.7960 hn         1 I79       0.383300
     39 HN8         -3.3180     4.2020    -1.5810 hn         1 I79       0.383300
     40 HN8A        -4.9050     4.5010    -1.9870 hn         1 I79       0.383300
     41 H10         -3.6470    -2.2310    -1.0180 ha         1 I79       0.119000
     42 H11         -1.9160    -3.7670    -0.2100 ha         1 I79       0.153000
     43 H14         -1.8310     1.0550     1.0580 ha         1 I79       0.113000
     44 H16          1.8300    -1.8730     2.7430 h4         1 I79       0.148000
     45 H18          1.4820    -4.4590     2.1660 hc         1 I79       0.029200
     46 H18A        -0.1740    -4.8850     1.8470 hc         1 I79       0.029200
     47 H22         -0.0310     1.3830     2.3200 h1         1 I79       0.051700
     48 H22A         0.8760     0.5700     3.5620 h1         1 I79       0.051700
     49 H28          4.4180     0.9920     4.1720 hc         1 I79       0.049367
     50 H28A         2.7960     0.3530     4.3820 hc         1 I79       0.049367
     51 H28B         4.0370    -0.6300     3.6110 hc         1 I79       0.049367
     52 H29          4.6790     2.6200    -1.4920 ha         1 I79       0.136000
     53 H30          2.8010     3.1180    -3.0090 ha         1 I79       0.140000
     54 H32         -0.0060     1.6870    -0.1050 ha         1 I79       0.161000
@<TRIPOS>BOND
     1     1     2 ar  
     2     1     6 ar  
     3     1    34 1   
     4     2     3 ar  
     5     2     9 1   
     6     3     4 ar  
     7     3    35 1   
     8     4     5 ar  
     9     4     8 1   
    10     5     6 ar  
    11     5    36 1   
    12     6     7 1   
    13     7    37 1   
    14     7    38 1   
    15     8    39 1   
    16     8    40 1   
    17     9    10 ar  
    18     9    14 ar  
    19    10    11 ar  
    20    10    41 1   
    21    11    12 ar  
    22    11    42 1   
    23    12    13 ar  
    24    12    15 1   
    25    13    14 ar  
    26    13    17 1   
    27    14    43 1   
    28    15    16 2   
    29    15    18 1   
    30    16    17 1   
    31    16    44 1   
    32    17    22 1   
    33    18    19 1   
    34    18    45 1   
    35    18    46 1   
    36    19    20 1   
    37    19    21 1   
    38    22    23 1   
    39    22    47 1   
    40    22    48 1   
    41    23    24 1   
    42    23    27 2   
    43    24    25 ar  
    44    24    32 ar  
    45    25    26 1   
    46    25    29 ar  
    47    26    27 1   
    48    27    28 1   
    49    28    49 1   
    50    28    50 1   
    51    28    51 1   
    52    29    30 ar  
    53    29    52 1   
    54    30    31 ar  
    55    30    53 1   
    56    31    32 ar  
    57    31    33 1   
    58    32    54 1   
@<TRIPOS>SUBSTRUCTURE
     1 I79         1 TEMP              0 ****  ****    0 ROOT
