@<TRIPOS>MOLECULE
I79
   54    58     1     0     0
SMALL
No Charge or Current Charge


@<TRIPOS>ATOM
      1 C1          -5.3910    -0.0690    -0.5700 ca         1 I79      -0.207000
      2 C2          -4.0520     0.3850    -0.4920 cp         1 I79       0.065000
      3 C3          -3.7940     1.7280    -0.8610 ca         1 I79      -0.207000
      4 C4          -4.8270     2.5720    -1.2850 ca         1 I79       0.311500
      5 C5          -6.1390     2.1010    -1.3510 ca         1 I79      -0.254000
      6 C6          -6.4190     0.7810    -0.9940 ca         1 I79       0.311500
      7 N7          -7.7030     0.3220    -1.0570 nv         1 I79      -1.074500
      8 N8          -4.5540     3.8620    -1.6380 nv         1 I79      -1.074500
      9 C9          -2.9480    -0.5210    -0.0390 cp         1 I79      -0.042000
     10 C10         -2.9580    -1.9100    -0.3640 ca         1 I79      -0.154000
     11 C11         -1.9210    -2.7680     0.0520 ca         1 I79      -0.020000
     12 C12         -0.8690    -2.2200     0.7970 ca         1 I79      -0.062800
     13 C13         -0.8300    -0.8920     1.1230 ca         1 I79      -0.047200
     14 C14         -1.8580    -0.0190     0.7240 ca         1 I79      -0.139000
     15 C15          0.3030    -2.8520     1.3410 cc         1 I79      -0.022400
     16 C16          1.0140    -1.8440     1.9840 cd         1 I79      -0.209100
     17 N17          0.3200    -0.6210     1.8550 na         1 I79      -0.108700
     18 C18          0.6770    -4.3090     1.2430 c3         1 I79      -0.166200
     19 C19          1.3230    -4.6530    -0.1110 c          1 I79       0.720000
     20 O20          2.5290    -4.4970    -0.2300 o          1 I79      -0.728000
     21 O21          0.5900    -4.9680    -1.0370 o          1 I79      -0.728000
     22 C22          0.7360     0.7110     2.3360 c3         1 I79       0.150800
     23 C23          2.0840     1.1280     1.8000 cc         1 I79      -0.092400
     24 C24          2.3230     1.5470     0.4300 ca         1 I79      -0.040800
     25 C25          3.6410     1.8770     0.1740 ca         1 I79      -0.156000
     26 S26          4.6920     1.7010     1.5860 ss         1 I79       0.039400
     27 C27          3.2710     1.1590     2.5240 cd         1 I79      -0.022600
     28 C28          3.4500     0.7890     3.9740 c3         1 I79      -0.033900
     29 C29          4.0610     2.3010    -1.0960 ca         1 I79      -0.076000
     30 C30          3.1070     2.3890    -2.1290 ca         1 I79      -0.099000
     31 C31          1.7610     2.0520    -1.8760 ca         1 I79       0.116000
     32 C32          1.3620     1.6300    -0.5940 ca         1 I79      -0.053000
     33 Cl33         0.5720     2.1610    -3.1680 cl         1 I79      -0.207000
     34 H1          -5.6300    -1.0890    -0.2830 ha         1 I79       0.118500
     35 H3          -2.7770     2.1080    -0.8300 ha         1 I79       0.118500
     36 H5          -6.9390     2.7580    -1.6800 ha         1 I79       0.099000
     37 HN7         -7.8910    -0.6710    -0.9410 hn         1 I79       0.438500
     38 HN7A        -8.4220     0.8920    -1.4990 hn         1 I79       0.438500
     39 HN8         -3.6310     4.2510    -1.4620 hn         1 I79       0.438500
     40 HN8A        -5.3180     4.5110    -1.8130 hn         1 I79       0.438500
     41 H10         -3.7700    -2.3230    -0.9570 ha         1 I79       0.101000
     42 H11         -1.9340    -3.8250    -0.2050 ha         1 I79       0.135000
     43 H14         -1.8320     1.0300     1.0010 ha         1 I79       0.095000
     44 H16          1.9580    -1.9100     2.5130 h4         1 I79       0.198000
     45 H18          1.3970    -4.4920     2.0500 hc         1 I79       0.029200
     46 H18A        -0.2540    -4.8740     1.3670 hc         1 I79       0.029200
     47 H22         -0.0060     1.4650     2.0530 h1         1 I79       0.051700
     48 H22A         0.7630     0.6840     3.4320 h1         1 I79       0.051700
     49 H28          4.5050     0.8190     4.2680 hc         1 I79       0.049367
     50 H28A         2.9020     1.4810     4.6250 hc         1 I79       0.049367
     51 H28B         3.0790    -0.2240     4.1710 hc         1 I79       0.049367
     52 H29          5.1020     2.5570    -1.2820 ha         1 I79       0.118000
     53 H30          3.4070     2.7140    -3.1210 ha         1 I79       0.122000
     54 H32          0.3250     1.3710    -0.4110 ha         1 I79       0.143000
@<TRIPOS>BOND
     1     1     2 ar  
     2     1     6 ar  
     3     1    34 1   
     4     2     3 ar  
     5     2     9 1   
     6     3     4 ar  
     7     3    35 1   
     8     4     5 ar  
     9     4     8 1   
    10     5     6 ar  
    11     5    36 1   
    12     6     7 1   
    13     7    37 1   
    14     7    38 1   
    15     8    39 1   
    16     8    40 1   
    17     9    10 ar  
    18     9    14 ar  
    19    10    11 ar  
    20    10    41 1   
    21    11    12 ar  
    22    11    42 1   
    23    12    13 ar  
    24    12    15 1   
    25    13    14 ar  
    26    13    17 1   
    27    14    43 1   
    28    15    16 2   
    29    15    18 1   
    30    16    17 1   
    31    16    44 1   
    32    17    22 1   
    33    18    19 1   
    34    18    45 1   
    35    18    46 1   
    36    19    20 1   
    37    19    21 1   
    38    22    23 1   
    39    22    47 1   
    40    22    48 1   
    41    23    24 1   
    42    23    27 2   
    43    24    25 ar  
    44    24    32 ar  
    45    25    26 1   
    46    25    29 ar  
    47    26    27 1   
    48    27    28 1   
    49    28    49 1   
    50    28    50 1   
    51    28    51 1   
    52    29    30 ar  
    53    29    52 1   
    54    30    31 ar  
    55    30    53 1   
    56    31    32 ar  
    57    31    33 1   
    58    32    54 1   
@<TRIPOS>SUBSTRUCTURE
     1 I79         1 TEMP              0 ****  ****    0 ROOT
