@<TRIPOS>MOLECULE
I7A
   22    22     1     0     0
SMALL
No Charge or Current Charge


@<TRIPOS>ATOM
      1 S1          -3.2400     0.5510     0.0430 sy         1 I7A       1.140600
      2 O1          -4.1730    -0.5160    -0.3060 o          1 I7A      -0.532500
      3 O2          -3.3150     1.8830    -0.5520 o          1 I7A      -0.532500
      4 N1          -3.5390     0.8190     1.6220 n8         1 I7A      -1.022100
      5 S2           2.1660     1.5800    -0.2290 sy         1 I7A       1.160600
      6 O3           1.6280     2.9340    -0.3320 o          1 I7A      -0.517500
      7 O4           3.2070     1.0960    -1.1310 o          1 I7A      -0.517500
      8 N2           2.8830     1.5510     1.2340 n8         1 I7A      -1.022100
      9 C1          -1.5570    -0.0500     0.0540 ca         1 I7A      -0.278500
     10 C2          -0.4870     0.8560    -0.0670 ca         1 I7A       0.096000
     11 C3           0.8450     0.3840    -0.0620 ca         1 I7A      -0.312500
     12 C4           1.0990    -1.0020     0.0790 ca         1 I7A       0.233000
     13 C5           0.0170    -1.9010     0.2050 ca         1 I7A       0.071000
     14 C6          -1.3040    -1.4270     0.1910 ca         1 I7A       0.042000
     15 Cl1          2.7450    -1.6560     0.1290 cl         1 I7A      -0.139000
     16 Cl2          0.2870    -3.6380     0.3870 cl         1 I7A      -0.150000
     17 HN11        -3.8910     1.7730     1.5820 hn         1 I7A       0.484000
     18 HN12        -4.3980     0.2840     1.7370 hn         1 I7A       0.484000
     19 HN21         3.8330     1.3040     0.9620 hn         1 I7A       0.490500
     20 HN22         2.9690     2.5480     1.4160 hn         1 I7A       0.490500
     21 H2          -0.6950     1.9220    -0.1670 ha         1 I7A       0.171000
     22 H6          -2.1240    -2.1360     0.2910 ha         1 I7A       0.161000
@<TRIPOS>BOND
     1     1     2 2   
     2     1     3 2   
     3     1     4 1   
     4     1     9 1   
     5     4    17 1   
     6     4    18 1   
     7     5     6 2   
     8     5     7 2   
     9     5     8 1   
    10     5    11 1   
    11     8    19 1   
    12     8    20 1   
    13     9    10 ar  
    14     9    14 ar  
    15    10    11 ar  
    16    10    21 1   
    17    11    12 ar  
    18    12    13 ar  
    19    12    15 1   
    20    13    14 ar  
    21    13    16 1   
    22    14    22 1   
@<TRIPOS>SUBSTRUCTURE
     1 I7A         1 TEMP              0 ****  ****    0 ROOT
