@<TRIPOS>MOLECULE
I7A
   22    22     1     0     0
SMALL
bcc


@<TRIPOS>ATOM
      1 S1          -3.2180     0.3660    -0.0700 sy         1 I7A       1.282200
      2 O1          -3.9950    -0.8450    -0.2730 o          1 I7A      -0.603300
      3 O2          -3.3560     1.4650    -1.0110 o          1 I7A      -0.603300
      4 N1          -3.4050     1.0150     1.4270 n8         1 I7A      -0.911700
      5 S2           2.0110     1.8370    -0.0260 sy         1 I7A       1.302200
      6 O3           1.2570     3.0700     0.0890 o          1 I7A      -0.588300
      7 O4           2.8820     1.6140    -1.1620 o          1 I7A      -0.588300
      8 N2           2.9120     1.7070     1.3240 n8         1 I7A      -0.911700
      9 C1          -1.5060    -0.1150    -0.0220 ca         1 I7A      -0.278500
     10 C2          -0.5390     0.8780    -0.0010 ca         1 I7A       0.078000
     11 C3           0.7950     0.5170    -0.0090 ca         1 I7A      -0.312500
     12 C4           1.1620    -0.8290    -0.0450 ca         1 I7A       0.141400
     13 C5           0.1730    -1.8070    -0.0540 ca         1 I7A      -0.020600
     14 C6          -1.1680    -1.4520    -0.0490 ca         1 I7A       0.024000
     15 CL1          2.8050    -1.3020    -0.0600 cl         1 I7A      -0.047400
     16 CL2          0.5950    -3.4680    -0.0810 cl         1 I7A      -0.058400
     17 HN11        -4.1280     1.7270     1.4490 hn         1 I7A       0.428800
     18 HN12        -3.5480     0.3240     2.1560 hn         1 I7A       0.428800
     19 HN21         2.4030     1.8240     2.1930 hn         1 I7A       0.435300
     20 HN22         3.5660     0.9350     1.3500 hn         1 I7A       0.435300
     21 H2          -0.8190     1.9220     0.0240 ha         1 I7A       0.189000
     22 H6          -1.9240    -2.2250    -0.0640 ha         1 I7A       0.179000
@<TRIPOS>BOND
     1     1     2 2   
     2     1     3 2   
     3     1     4 1   
     4     1     9 1   
     5     4    17 1   
     6     4    18 1   
     7     5     6 2   
     8     5     7 2   
     9     5     8 1   
    10     5    11 1   
    11     8    19 1   
    12     8    20 1   
    13     9    10 ar  
    14     9    14 ar  
    15    10    11 ar  
    16    10    21 1   
    17    11    12 ar  
    18    12    13 ar  
    19    12    15 1   
    20    13    14 ar  
    21    13    16 1   
    22    14    22 1   
@<TRIPOS>SUBSTRUCTURE
     1 I7A         1 TEMP              0 ****  ****    0 ROOT
