@<TRIPOS>MOLECULE
I7B
   24    24     1     0     0
SMALL
abcg2


@<TRIPOS>ATOM
      1 C2           0.2940     0.6450    -0.0030 ca         1 I7B       0.138000
      2 C1           1.4090    -0.1750    -0.0400 ca         1 I7B      -0.398500
      3 C6           1.2810    -1.5840    -0.0640 ca         1 I7B       0.497000
      4 C5          -0.0330    -2.1010    -0.0500 ca         1 I7B      -0.242000
      5 C4          -1.1240    -1.2740    -0.0070 ca         1 I7B       0.291000
      6 C3          -0.9850     0.1200     0.0180 ca         1 I7B      -0.403500
      7 S1           2.9950     0.5940    -0.0620 sy         1 I7B       1.140600
      8 N1           3.5750     0.1570     1.4170 n8         1 I7B      -1.016100
      9 O2           3.8530    -0.0760    -1.0330 o          1 I7B      -0.547000
     10 O1           2.7970     2.0290    -0.2030 o          1 I7B      -0.547000
     11 S2          -2.3610     1.2310     0.1100 sy         1 I7B       1.161600
     12 N2          -3.2290     1.0890    -1.2740 n8         1 I7B      -1.001100
     13 O3          -3.2290     0.8070     1.1920 o          1 I7B      -0.528000
     14 O4          -1.8090     2.5750     0.1140 o          1 I7B      -0.528000
     15 N3           2.3110    -2.4350    -0.0800 nv         1 I7B      -1.083000
     16 CL1         -2.6840    -2.0060    -0.0230 cl         1 I7B      -0.174000
     17 H2           0.4260     1.7180     0.0150 ha         1 I7B       0.170000
     18 H5          -0.1710    -3.1740    -0.0770 ha         1 I7B       0.132000
     19 HN11         3.1360     0.6600     2.1810 hn         1 I7B       0.479500
     20 HN12         4.5860     0.2410     1.4670 hn         1 I7B       0.479500
     21 HN21        -2.7080     1.3240    -2.1110 hn         1 I7B       0.479500
     22 HN22        -3.7200     0.2080    -1.3730 hn         1 I7B       0.479500
     23 HN31         3.2550    -2.1340    -0.2460 hn         1 I7B       0.508500
     24 HN32         2.1370    -3.4210    -0.1730 hn         1 I7B       0.508500
@<TRIPOS>BOND
     1     1     2 ar  
     2     1     6 ar  
     3     1    17 1   
     4     2     3 ar  
     5     2     7 1   
     6     3     4 ar  
     7     3    15 1   
     8     4     5 ar  
     9     4    18 1   
    10     5     6 ar  
    11     5    16 1   
    12     6    11 1   
    13     7     8 1   
    14     7     9 2   
    15     7    10 2   
    16     8    19 1   
    17     8    20 1   
    18    11    12 1   
    19    11    13 2   
    20    11    14 2   
    21    12    21 1   
    22    12    22 1   
    23    15    23 1   
    24    15    24 1   
@<TRIPOS>SUBSTRUCTURE
     1 I7B         1 TEMP              0 ****  ****    0 ROOT
