@<TRIPOS>MOLECULE
I7B
   24    24     1     0     0
SMALL
No Charge or Current Charge


@<TRIPOS>ATOM
      1 C2           0.3170     0.5310     0.0810 ca         1 I7B       0.138000
      2 C1           1.4710    -0.2670    -0.0290 ca         1 I7B      -0.398500
      3 C6           1.3420    -1.6490    -0.1900 ca         1 I7B       0.497000
      4 C5           0.0770    -2.2290    -0.2510 ca         1 I7B      -0.242000
      5 C4          -1.0770    -1.4470    -0.1460 ca         1 I7B       0.291000
      6 C3          -0.9600    -0.0560     0.0260 ca         1 I7B      -0.403500
      7 S1           3.0430     0.5610     0.0490 sy         1 I7B       1.140600
      8 N1           3.2700     0.7350     1.6490 n8         1 I7B      -1.016100
      9 O2           4.1440    -0.3040    -0.3670 o          1 I7B      -0.547000
     10 O1           2.9190     1.9380    -0.4200 o          1 I7B      -0.547000
     11 S2          -2.3880     0.9990     0.1790 sy         1 I7B       1.161600
     12 N2          -3.0410     0.9400    -1.3110 n8         1 I7B      -1.001100
     13 O3          -3.4090     0.3920     1.0280 o          1 I7B      -0.528000
     14 O4          -1.9830     2.3930     0.3370 o          1 I7B      -0.528000
     15 N3           2.4120    -2.4790    -0.2960 nv         1 I7B      -1.083000
     16 Cl1         -2.6280    -2.2820    -0.2610 cl         1 I7B      -0.174000
     17 H2           0.4180     1.6100     0.2150 ha         1 I7B       0.170000
     18 H5          -0.0230    -3.3010    -0.3800 ha         1 I7B       0.132000
     19 HN11         3.5640     1.7090     1.6860 hn         1 I7B       0.479500
     20 HN12         4.1540     0.2430     1.7600 hn         1 I7B       0.479500
     21 HN21        -3.9450     0.5290    -1.0930 hn         1 I7B       0.479500
     22 HN22        -3.2780     1.9190    -1.4500 hn         1 I7B       0.479500
     23 HN31         3.3250    -2.0520    -0.4510 hn         1 I7B       0.508500
     24 HN32         2.2750    -3.4150    -0.6680 hn         1 I7B       0.508500
@<TRIPOS>BOND
     1     1     2 ar  
     2     1     6 ar  
     3     1    17 1   
     4     2     3 ar  
     5     2     7 1   
     6     3     4 ar  
     7     3    15 1   
     8     4     5 ar  
     9     4    18 1   
    10     5     6 ar  
    11     5    16 1   
    12     6    11 1   
    13     7     8 1   
    14     7     9 2   
    15     7    10 2   
    16     8    19 1   
    17     8    20 1   
    18    11    12 1   
    19    11    13 2   
    20    11    14 2   
    21    12    21 1   
    22    12    22 1   
    23    15    23 1   
    24    15    24 1   
@<TRIPOS>SUBSTRUCTURE
     1 I7B         1 TEMP              0 ****  ****    0 ROOT
