@<TRIPOS>MOLECULE
I7C
   27    27     1     0     0
SMALL
No Charge or Current Charge


@<TRIPOS>ATOM
      1 C2          -0.7350     0.6530     0.0620 ca         1 I7C       0.106000
      2 C1          -1.7720    -0.2990     0.1010 ca         1 I7C      -0.408500
      3 C6          -1.4510    -1.6550     0.0770 ca         1 I7C       0.454000
      4 C5          -0.1150    -2.0570     0.0150 ca         1 I7C      -0.196000
      5 C4           0.9550    -1.1300    -0.0170 ca         1 I7C       0.005700
      6 C3           0.6200     0.2620    -0.0100 ca         1 I7C      -0.299500
      7 S1          -3.4520     0.2890     0.1980 sy         1 I7C       1.158600
      8 N1          -3.8810     0.2970    -1.3750 n8         1 I7C      -1.003100
      9 O1          -4.3260    -0.7000     0.8290 o          1 I7C      -0.533500
     10 O2          -3.4620     1.7020     0.5640 o          1 I7C      -0.533500
     11 S2           1.8250     1.6150    -0.0770 sy         1 I7C       1.139600
     12 N2           2.3250     1.7400     1.4670 n8         1 I7C      -1.012100
     13 O3           3.0360     1.2400    -0.7970 o          1 I7C      -0.538000
     14 O4           1.1590     2.8920    -0.3170 o          1 I7C      -0.538000
     15 N3          -2.4030    -2.6240     0.1010 nv         1 I7C      -1.101000
     16 C7           2.4040    -1.6890    -0.0700 c3         1 I7C       0.351300
     17 F1           3.2240    -1.1140     0.8380 f          1 I7C      -0.098667
     18 F2           2.4640    -3.0170     0.1860 f          1 I7C      -0.098667
     19 F3           2.9620    -1.5240    -1.2910 f          1 I7C      -0.098667
     20 H2          -0.9860     1.7150     0.0860 ha         1 I7C       0.171000
     21 H5           0.0890    -3.1230    -0.0110 ha         1 I7C       0.135000
     22 HN11        -2.9820     0.2170    -1.8420 hn         1 I7C       0.483000
     23 HN12        -4.1360     1.2740    -1.4970 hn         1 I7C       0.483000
     24 HN21         2.2400     2.7440     1.6060 hn         1 I7C       0.483000
     25 HN22         3.3270     1.6250     1.3410 hn         1 I7C       0.483000
     26 HN31        -3.3430    -2.3460     0.3810 hn         1 I7C       0.504500
     27 HN32        -2.1290    -3.5770     0.3280 hn         1 I7C       0.504500
@<TRIPOS>BOND
     1     1     2 ar  
     2     1     6 ar  
     3     1    20 1   
     4     2     3 ar  
     5     2     7 1   
     6     3     4 ar  
     7     3    15 1   
     8     4     5 ar  
     9     4    21 1   
    10     5     6 ar  
    11     5    16 1   
    12     6    11 1   
    13     7     8 1   
    14     7     9 2   
    15     7    10 2   
    16     8    22 1   
    17     8    23 1   
    18    11    12 1   
    19    11    13 2   
    20    11    14 2   
    21    12    24 1   
    22    12    25 1   
    23    15    26 1   
    24    15    27 1   
    25    16    17 1   
    26    16    18 1   
    27    16    19 1   
@<TRIPOS>SUBSTRUCTURE
     1 I7C         1 TEMP              0 ****  ****    0 ROOT
