@<TRIPOS>MOLECULE
I7C
   27    27     1     0     0
SMALL
bcc


@<TRIPOS>ATOM
      1 C2          -0.6500     0.7390     0.1080 ca         1 I7C       0.088000
      2 C1          -1.6880    -0.1750     0.1450 ca         1 I7C      -0.408500
      3 C6          -1.4340    -1.5570     0.1020 ca         1 I7C       0.315600
      4 C5          -0.0820    -1.9470    -0.0020 ca         1 I7C      -0.214000
      5 C4           0.9520    -1.0440    -0.0370 ca         1 I7C       0.005700
      6 C3           0.6700     0.3360     0.0220 ca         1 I7C      -0.299500
      7 S1          -3.3480     0.4480     0.1560 sy         1 I7C       1.300200
      8 N1          -3.9680     0.2040    -1.3410 n8         1 I7C      -0.892700
      9 O1          -4.1330    -0.3790     1.0600 o          1 I7C      -0.604300
     10 O2          -3.2830     1.8830     0.3580 o          1 I7C      -0.604300
     11 S2           1.8760     1.6430    -0.0160 sy         1 I7C       1.281200
     12 N2           2.4880     1.6140     1.5140 n8         1 I7C      -0.901700
     13 O3           2.9600     1.2980    -0.9170 o          1 I7C      -0.608800
     14 O4           1.1350     2.8720    -0.2640 o          1 I7C      -0.608800
     15 N3          -2.3930    -2.5000     0.1050 nv         1 I7C      -0.852200
     16 C7           2.3450    -1.6140    -0.1880 c3         1 I7C       0.715200
     17 F1           3.2230    -1.0450     0.6340 f          1 I7C      -0.219967
     18 F2           2.3700    -2.9230     0.0820 f          1 I7C      -0.219967
     19 F3           2.7890    -1.4760    -1.4390 f          1 I7C      -0.219967
     20 H2          -0.8820     1.7940     0.1450 ha         1 I7C       0.189000
     21 H5           0.1170    -3.0090    -0.0490 ha         1 I7C       0.153000
     22 HN11        -4.0820    -0.7700    -1.5970 hn         1 I7C       0.427800
     23 HN12        -3.5050     0.7330    -2.0720 hn         1 I7C       0.427800
     24 HN21         1.9310     2.1470     2.1730 hn         1 I7C       0.427800
     25 HN22         3.4600     1.9040     1.5400 hn         1 I7C       0.427800
     26 HN31        -3.3000    -2.3020     0.4970 hn         1 I7C       0.449300
     27 HN32        -2.1100    -3.4650     0.1570 hn         1 I7C       0.449300
@<TRIPOS>BOND
     1     1     2 ar  
     2     1     6 ar  
     3     1    20 1   
     4     2     3 ar  
     5     2     7 1   
     6     3     4 ar  
     7     3    15 1   
     8     4     5 ar  
     9     4    21 1   
    10     5     6 ar  
    11     5    16 1   
    12     6    11 1   
    13     7     8 1   
    14     7     9 2   
    15     7    10 2   
    16     8    22 1   
    17     8    23 1   
    18    11    12 1   
    19    11    13 2   
    20    11    14 2   
    21    12    24 1   
    22    12    25 1   
    23    15    26 1   
    24    15    27 1   
    25    16    17 1   
    26    16    18 1   
    27    16    19 1   
@<TRIPOS>SUBSTRUCTURE
     1 I7C         1 TEMP              0 ****  ****    0 ROOT
