@<TRIPOS>MOLECULE
I7D
  105   104     1     0     0
SMALL
abcg2


@<TRIPOS>ATOM
      1 C1         164.5910   202.2960   178.8860 c3         1 I7D       0.185000
      2 O1         165.2640   203.2920   178.1240 os         1 I7D      -0.460000
      3 C2         163.1770   202.0230   178.3690 c3         1 I7D      -0.117100
      4 C3         165.3930   200.9940   178.8860 c3         1 I7D      -0.117100
      5 C4         164.5540   202.8550   180.3110 c3         1 I7D      -0.058400
      6 C5         163.8170   204.1880   180.4680 c3         1 I7D      -0.164400
      7 C6         164.5570   205.3310   179.8010 c          1 I7D       0.586300
      8 C7         163.9780   206.0920   178.6700 ce         1 I7D      -0.152400
      9 C8         164.9400   207.0060   177.9730 c3         1 I7D      -0.048900
     10 C10        161.9910   206.6680   177.2750 cf         1 I7D      -0.183000
     11 C11        160.6680   206.5040   177.0500 ce         1 I7D      -0.165000
     12 C12        159.9130   207.1410   175.9960 ce         1 I7D      -0.070200
     13 C13        160.6450   208.0390   175.0440 c3         1 I7D      -0.054900
     14 C14        158.5780   206.8940   175.9320 cf         1 I7D      -0.169000
     15 C15        157.6470   207.4150   174.9750 cf         1 I7D      -0.177000
     16 C16        156.3210   207.1470   175.0300 ce         1 I7D      -0.168000
     17 C17        155.3290   207.6380   174.1040 ce         1 I7D      -0.067200
     18 C18        155.7880   208.4790   172.9510 c3         1 I7D      -0.055900
     19 C19        154.0250   207.3210   174.3360 cf         1 I7D      -0.171000
     20 C1M        165.2020   203.1960   176.7250 c3         1 I7D       0.152900
     21 C20        152.8930   207.7140   173.5550 cf         1 I7D      -0.176000
     22 C21        151.6140   207.3970   173.8790 ce         1 I7D      -0.166000
     23 C22        150.5030   207.8190   173.0820 ce         1 I7D      -0.181000
     24 C23        149.1780   207.6180   173.3170 cf         1 I7D      -0.058200
     25 C24        148.6410   206.8840   174.5070 c3         1 I7D      -0.055900
     26 C25        148.2450   208.1610   172.3610 cf         1 I7D      -0.179000
     27 C26        146.8940   208.1260   172.4430 ce         1 I7D      -0.166000
     28 C27        146.0690   208.7150   171.4280 ce         1 I7D      -0.183000
     29 C28        144.7140   208.8120   171.4000 cf         1 I7D      -0.058200
     30 C29        143.8160   208.2990   172.4840 c3         1 I7D      -0.055900
     31 C2M        136.8610   214.7130   166.3530 c3         1 I7D       0.151900
     32 C30        144.1140   209.4550   170.2530 cf         1 I7D      -0.182000
     33 C31        142.7950   209.6680   170.0500 ce         1 I7D      -0.163000
     34 C32        142.3070   210.3080   168.8580 ce         1 I7D      -0.190000
     35 C33        141.0240   210.5960   168.5330 cf         1 I7D      -0.051200
     36 C34        139.8500   210.2910   169.4110 c3         1 I7D      -0.056900
     37 C35        140.7760   211.2350   167.2480 cf         1 I7D      -0.201000
     38 C36        139.5840   211.6000   166.7610 c2         1 I7D      -0.185200
     39 C37        139.3990   212.2250   165.4160 c3         1 I7D      -0.035200
     40 C38        138.8340   213.6550   165.4440 c3         1 I7D       0.191000
     41 C39        138.6790   214.1450   164.0040 c3         1 I7D      -0.117600
     42 C40        139.7740   214.5810   166.2130 c3         1 I7D      -0.117600
     43 C9         162.6730   205.9800   178.3390 cf         1 I7D      -0.151000
     44 O2         137.5680   213.5300   166.0800 os         1 I7D      -0.462000
     45 O6         165.6610   205.6340   180.2200 o          1 I7D      -0.529100
     46 H1         162.6380   201.4010   179.0830 hc         1 I7D       0.041033
     47 H2         162.6020   202.9380   178.2240 hc         1 I7D       0.041033
     48 H3         163.1900   201.4850   177.4200 hc         1 I7D       0.041033
     49 H4         164.9130   200.2520   179.5240 hc         1 I7D       0.041033
     50 H5         165.4670   200.5620   177.8860 hc         1 I7D       0.041033
     51 H6         166.4050   201.1570   179.2620 hc         1 I7D       0.041033
     52 H7         165.5780   202.9640   180.6790 hc         1 I7D       0.056700
     53 H8         164.0750   202.1160   180.9580 hc         1 I7D       0.056700
     54 H9         163.7670   204.4220   181.5340 hc         1 I7D       0.055700
     55 H10        162.7870   204.0810   180.1350 hc         1 I7D       0.055700
     56 H11        165.8010   206.4500   177.5990 hc         1 I7D       0.047367
     57 H12        164.4930   207.5260   177.1300 hc         1 I7D       0.047367
     58 H13        165.3290   207.7640   178.6550 hc         1 I7D       0.047367
     59 H14        162.5610   207.3290   176.6350 ha         1 I7D       0.180000
     60 H15        160.1130   205.8410   177.7090 ha         1 I7D       0.169000
     61 H17        161.4440   207.4990   174.5330 hc         1 I7D       0.043367
     62 H18        160.0000   208.4680   174.2820 hc         1 I7D       0.043367
     63 H19        161.1150   208.8680   175.5780 hc         1 I7D       0.043367
     64 H20        158.1580   206.2330   176.6860 ha         1 I7D       0.169000
     65 H21        158.0250   208.0500   174.1830 ha         1 I7D       0.175000
     66 H22        155.9570   206.5180   175.8380 ha         1 I7D       0.170000
     67 H23        156.2660   209.3960   173.3030 hc         1 I7D       0.042700
     68 H24        156.5300   207.9480   172.3520 hc         1 I7D       0.042700
     69 H25        154.9800   208.7690   172.2860 hc         1 I7D       0.042700
     70 H26        153.8090   206.7100   175.2080 ha         1 I7D       0.169000
     71 H27        165.8730   203.9560   176.3230 h1         1 I7D       0.026700
     72 H28        165.5320   202.2230   176.3450 h1         1 I7D       0.026700
     73 H29        164.2000   203.3920   176.3290 h1         1 I7D       0.026700
     74 H30        153.0560   208.3060   172.6610 ha         1 I7D       0.172000
     75 H31        151.4350   206.8120   174.7750 ha         1 I7D       0.173000
     76 H32        150.7630   208.3780   172.1860 ha         1 I7D       0.168000
     77 H34        149.4230   206.5120   175.1630 hc         1 I7D       0.042700
     78 H35        147.9920   207.5290   175.1030 hc         1 I7D       0.042700
     79 H36        148.0360   206.0300   174.1960 hc         1 I7D       0.042700
     80 H37        148.6850   208.6560   171.4980 ha         1 I7D       0.169000
     81 H38        146.4190   207.6500   173.2930 ha         1 I7D       0.175000
     82 H39        146.6090   209.1380   170.5840 ha         1 I7D       0.168000
     83 H40        144.3610   207.8210   173.2940 hc         1 I7D       0.042367
     84 H41        143.2280   209.1110   172.9180 hc         1 I7D       0.042367
     85 H42        143.1040   207.5720   172.0890 hc         1 I7D       0.042367
     86 H43        135.8930   214.4200   166.7580 h1         1 I7D       0.026033
     87 H44        137.3570   215.3450   167.0980 h1         1 I7D       0.026033
     88 H45        136.6790   215.3230   165.4630 h1         1 I7D       0.026033
     89 H46        144.8060   209.7940   169.4860 ha         1 I7D       0.169000
     90 H47        142.0800   209.3470   170.7980 ha         1 I7D       0.174000
     91 H48        143.0730   210.5860   168.1370 ha         1 I7D       0.167000
     92 H49        140.1320   209.8090   170.3440 hc         1 I7D       0.043033
     93 H50        139.3050   211.2030   169.6630 hc         1 I7D       0.043033
     94 H51        139.1420   209.6340   168.9020 hc         1 I7D       0.043033
     95 H52        141.6580   211.4210   166.6390 ha         1 I7D       0.165000
     96 H54        138.6860   211.4280   167.3450 ha         1 I7D       0.183000
     97 H56        138.7170   211.6070   164.8210 hc         1 I7D       0.053200
     98 H57        140.3510   212.2440   164.8790 hc         1 I7D       0.053200
     99 H58        139.6470   214.1480   163.5000 hc         1 I7D       0.041700
    100 H59        138.0100   213.4940   163.4390 hc         1 I7D       0.041700
    101 H60        138.2890   215.1620   163.9540 hc         1 I7D       0.041700
    102 H61        139.8320   214.3080   167.2680 hc         1 I7D       0.041700
    103 H62        140.7810   214.5140   165.7990 hc         1 I7D       0.041700
    104 H63        139.4660   215.6250   166.1460 hc         1 I7D       0.041700
    105 H64        162.0420   205.3130   178.9160 ha         1 I7D       0.168000
@<TRIPOS>BOND
     1     1     2 1   
     2     1     3 1   
     3     1     4 1   
     4     1     5 1   
     5     2    20 1   
     6     3    46 1   
     7     3    47 1   
     8     3    48 1   
     9     4    49 1   
    10     4    50 1   
    11     4    51 1   
    12     5     6 1   
    13     5    52 1   
    14     5    53 1   
    15     6     7 1   
    16     6    54 1   
    17     6    55 1   
    18     7     8 1   
    19     7    45 2   
    20     8     9 1   
    21     8    43 2   
    22     9    56 1   
    23     9    57 1   
    24     9    58 1   
    25    10    11 2   
    26    10    43 1   
    27    10    59 1   
    28    11    12 1   
    29    11    60 1   
    30    12    13 1   
    31    12    14 2   
    32    13    61 1   
    33    13    62 1   
    34    13    63 1   
    35    14    15 1   
    36    14    64 1   
    37    15    16 2   
    38    15    65 1   
    39    16    17 1   
    40    16    66 1   
    41    17    18 1   
    42    17    19 2   
    43    18    67 1   
    44    18    68 1   
    45    18    69 1   
    46    19    21 1   
    47    19    70 1   
    48    20    71 1   
    49    20    72 1   
    50    20    73 1   
    51    21    22 2   
    52    21    74 1   
    53    22    23 1   
    54    22    75 1   
    55    23    24 2   
    56    23    76 1   
    57    24    25 1   
    58    24    26 1   
    59    25    77 1   
    60    25    78 1   
    61    25    79 1   
    62    26    27 2   
    63    26    80 1   
    64    27    28 1   
    65    27    81 1   
    66    28    29 2   
    67    28    82 1   
    68    29    30 1   
    69    29    32 1   
    70    30    83 1   
    71    30    84 1   
    72    30    85 1   
    73    31    44 1   
    74    31    86 1   
    75    31    87 1   
    76    31    88 1   
    77    32    33 2   
    78    32    89 1   
    79    33    34 1   
    80    33    90 1   
    81    34    35 2   
    82    34    91 1   
    83    35    36 1   
    84    35    37 1   
    85    36    92 1   
    86    36    93 1   
    87    36    94 1   
    88    37    38 2   
    89    37    95 1   
    90    38    39 1   
    91    38    96 1   
    92    39    40 1   
    93    39    97 1   
    94    39    98 1   
    95    40    41 1   
    96    40    42 1   
    97    40    44 1   
    98    41    99 1   
    99    41   100 1   
   100    41   101 1   
   101    42   102 1   
   102    42   103 1   
   103    42   104 1   
   104    43   105 1   
@<TRIPOS>SUBSTRUCTURE
     1 I7D         1 TEMP              0 ****  ****    0 ROOT
