@<TRIPOS>MOLECULE
I7D
  105   104     1     0     0
SMALL
No Charge or Current Charge


@<TRIPOS>ATOM
      1 C1         165.4990   202.4560   179.0900 c3         1 I7D       0.185000
      2 O1         166.1510   203.6790   178.6660 os         1 I7D      -0.460000
      3 C2         164.2760   202.1780   178.1750 c3         1 I7D      -0.117100
      4 C3         166.5300   201.2980   179.0160 c3         1 I7D      -0.117100
      5 C4         165.0780   202.6830   180.5760 c3         1 I7D      -0.058400
      6 C5         163.9820   203.7520   180.8620 c3         1 I7D      -0.164400
      7 C6         164.4070   205.1990   180.5320 c          1 I7D       0.586300
      8 C7         163.8230   205.8760   179.3130 ce         1 I7D      -0.152400
      9 C8         164.8160   206.6300   178.4310 c3         1 I7D      -0.048900
     10 C10        161.8810   206.2590   177.7440 cf         1 I7D      -0.183000
     11 C11        160.5760   206.0450   177.4060 ce         1 I7D      -0.165000
     12 C12        159.8620   206.5710   176.2260 ce         1 I7D      -0.070200
     13 C13        160.7110   207.1310   175.0860 c3         1 I7D      -0.054900
     14 C14        158.4990   206.4850   176.1610 cf         1 I7D      -0.169000
     15 C15        157.6320   206.9480   175.0800 cf         1 I7D      -0.177000
     16 C16        156.2790   206.7710   175.0620 ce         1 I7D      -0.168000
     17 C17        155.3330   207.2200   174.0200 ce         1 I7D      -0.067200
     18 C18        155.9200   207.6330   172.6730 c3         1 I7D      -0.055900
     19 C19        153.9880   207.1930   174.2650 cf         1 I7D      -0.171000
     20 C1M        166.6600   203.7660   177.3150 c3         1 I7D       0.152900
     21 C20        152.9130   207.5950   173.3610 cf         1 I7D      -0.176000
     22 C21        151.5890   207.4850   173.6520 ce         1 I7D      -0.166000
     23 C22        150.5090   207.9050   172.7450 ce         1 I7D      -0.181000
     24 C23        149.1630   207.7730   172.9430 cf         1 I7D      -0.058200
     25 C24        148.5770   207.0760   174.1680 c3         1 I7D      -0.055900
     26 C25        148.2250   208.2530   171.9220 cf         1 I7D      -0.179000
     27 C26        146.8780   208.4210   172.0500 ce         1 I7D      -0.166000
     28 C27        146.0100   208.9260   170.9730 ce         1 I7D      -0.183000
     29 C28        144.6510   209.0660   171.0000 cf         1 I7D      -0.058200
     30 C29        143.8040   208.6310   172.1940 c3         1 I7D      -0.055900
     31 C2M        136.2070   215.0050   166.4450 c3         1 I7D       0.151900
     32 C30        143.9480   209.5910   169.8250 cf         1 I7D      -0.182000
     33 C31        142.6550   210.0180   169.7570 ce         1 I7D      -0.163000
     34 C32        142.0290   210.5350   168.5290 ce         1 I7D      -0.190000
     35 C33        140.7680   211.0420   168.3910 cf         1 I7D      -0.051200
     36 C34        139.8160   211.2120   169.5730 c3         1 I7D      -0.056900
     37 C35        140.3120   211.5130   167.0800 cf         1 I7D      -0.201000
     38 C36        139.0350   211.8000   166.7240 c2         1 I7D      -0.185200
     39 C37        138.5910   212.2880   165.3550 c3         1 I7D      -0.035200
     40 C38        138.0620   213.7510   165.3420 c3         1 I7D       0.191000
     41 C39        137.5840   214.1340   163.9170 c3         1 I7D      -0.117600
     42 C40        139.1400   214.7370   165.8670 c3         1 I7D      -0.117600
     43 C9         162.5150   205.7080   178.9380 cf         1 I7D      -0.151000
     44 O2         136.9200   213.7630   166.2420 os         1 I7D      -0.462000
     45 O6         165.2640   205.7520   181.2150 o          1 I7D      -0.529100
     46 H1         163.6330   201.4080   178.6170 hc         1 I7D       0.041033
     47 H2         163.6740   203.0830   178.0290 hc         1 I7D       0.041033
     48 H3         164.5870   201.8170   177.1880 hc         1 I7D       0.041033
     49 H4         166.1280   200.3940   179.4880 hc         1 I7D       0.041033
     50 H5         166.7770   201.0380   177.9800 hc         1 I7D       0.041033
     51 H6         167.4580   201.5670   179.5360 hc         1 I7D       0.041033
     52 H7         165.9720   202.9320   181.1620 hc         1 I7D       0.056700
     53 H8         164.7180   201.7280   180.9780 hc         1 I7D       0.056700
     54 H9         163.7600   203.7110   181.9350 hc         1 I7D       0.055700
     55 H10        163.0780   203.4710   180.3150 hc         1 I7D       0.055700
     56 H11        165.8530   206.4900   178.7570 hc         1 I7D       0.047367
     57 H12        164.7640   206.2900   177.3900 hc         1 I7D       0.047367
     58 H13        164.6130   207.7070   178.4430 hc         1 I7D       0.047367
     59 H14        162.4940   206.8900   177.1000 ha         1 I7D       0.180000
     60 H15        159.9790   205.4340   178.0850 ha         1 I7D       0.169000
     61 H17        161.6840   206.6320   175.0160 hc         1 I7D       0.043367
     62 H18        160.2400   206.9890   174.1080 hc         1 I7D       0.043367
     63 H19        160.8920   208.2040   175.2190 hc         1 I7D       0.043367
     64 H20        157.9870   206.0360   177.0140 ha         1 I7D       0.169000
     65 H21        158.1000   207.4860   174.2560 ha         1 I7D       0.175000
     66 H22        155.8320   206.2590   175.9160 ha         1 I7D       0.170000
     67 H23        156.1610   208.7020   172.6580 hc         1 I7D       0.042700
     68 H24        156.8360   207.0790   172.4370 hc         1 I7D       0.042700
     69 H25        155.2370   207.4320   171.8410 hc         1 I7D       0.042700
     70 H26        153.6670   206.8490   175.2510 ha         1 I7D       0.169000
     71 H27        167.1150   204.7510   177.1520 h1         1 I7D       0.026700
     72 H28        167.4330   203.0120   177.1250 h1         1 I7D       0.026700
     73 H29        165.8580   203.6480   176.5750 h1         1 I7D       0.026700
     74 H30        153.1870   208.0200   172.3940 ha         1 I7D       0.172000
     75 H31        151.3110   207.0710   174.6220 ha         1 I7D       0.173000
     76 H32        150.8370   208.3870   171.8230 ha         1 I7D       0.168000
     77 H34        149.2440   206.3030   174.5650 hc         1 I7D       0.042700
     78 H35        148.3770   207.7930   174.9720 hc         1 I7D       0.042700
     79 H36        147.6380   206.5590   173.9370 hc         1 I7D       0.042700
     80 H37        148.6680   208.5210   170.9600 ha         1 I7D       0.169000
     81 H38        146.4070   208.1960   173.0060 ha         1 I7D       0.175000
     82 H39        146.5290   209.2310   170.0630 ha         1 I7D       0.168000
     83 H40        144.2560   207.7970   172.7420 hc         1 I7D       0.042367
     84 H41        143.6620   209.4580   172.8990 hc         1 I7D       0.042367
     85 H42        142.8140   208.2750   171.8880 hc         1 I7D       0.042367
     86 H43        135.3810   214.8490   167.1490 h1         1 I7D       0.026033
     87 H44        136.8590   215.7790   166.8680 h1         1 I7D       0.026033
     88 H45        135.7750   215.3790   165.5090 h1         1 I7D       0.026033
     89 H46        144.5420   209.6640   168.9110 ha         1 I7D       0.169000
     90 H47        142.0390   209.9830   170.6540 ha         1 I7D       0.174000
     91 H48        142.6500   210.4840   167.6330 ha         1 I7D       0.167000
     92 H49        140.3500   211.3900   170.5130 hc         1 I7D       0.043033
     93 H50        139.1530   212.0750   169.4470 hc         1 I7D       0.043033
     94 H51        139.1900   210.3220   169.7060 hc         1 I7D       0.043033
     95 H52        141.0870   211.6250   166.3190 ha         1 I7D       0.165000
     96 H54        138.2160   211.6820   167.4350 ha         1 I7D       0.183000
     97 H56        137.8050   211.6240   164.9730 hc         1 I7D       0.053200
     98 H57        139.4200   212.2050   164.6410 hc         1 I7D       0.053200
     99 H58        138.3830   213.9610   163.1860 hc         1 I7D       0.041700
    100 H59        136.7170   213.5300   163.6200 hc         1 I7D       0.041700
    101 H60        137.3080   215.1920   163.8520 hc         1 I7D       0.041700
    102 H61        139.3300   214.5820   166.9350 hc         1 I7D       0.041700
    103 H62        140.0840   214.5910   165.3300 hc         1 I7D       0.041700
    104 H63        138.8370   215.7810   165.7190 hc         1 I7D       0.041700
    105 H64        161.8570   205.1330   179.5930 ha         1 I7D       0.168000
@<TRIPOS>BOND
     1     1     2 1   
     2     1     3 1   
     3     1     4 1   
     4     1     5 1   
     5     2    20 1   
     6     3    46 1   
     7     3    47 1   
     8     3    48 1   
     9     4    49 1   
    10     4    50 1   
    11     4    51 1   
    12     5     6 1   
    13     5    52 1   
    14     5    53 1   
    15     6     7 1   
    16     6    54 1   
    17     6    55 1   
    18     7     8 1   
    19     7    45 2   
    20     8     9 1   
    21     8    43 2   
    22     9    56 1   
    23     9    57 1   
    24     9    58 1   
    25    10    11 2   
    26    10    43 1   
    27    10    59 1   
    28    11    12 1   
    29    11    60 1   
    30    12    13 1   
    31    12    14 2   
    32    13    61 1   
    33    13    62 1   
    34    13    63 1   
    35    14    15 1   
    36    14    64 1   
    37    15    16 2   
    38    15    65 1   
    39    16    17 1   
    40    16    66 1   
    41    17    18 1   
    42    17    19 2   
    43    18    67 1   
    44    18    68 1   
    45    18    69 1   
    46    19    21 1   
    47    19    70 1   
    48    20    71 1   
    49    20    72 1   
    50    20    73 1   
    51    21    22 2   
    52    21    74 1   
    53    22    23 1   
    54    22    75 1   
    55    23    24 2   
    56    23    76 1   
    57    24    25 1   
    58    24    26 1   
    59    25    77 1   
    60    25    78 1   
    61    25    79 1   
    62    26    27 2   
    63    26    80 1   
    64    27    28 1   
    65    27    81 1   
    66    28    29 2   
    67    28    82 1   
    68    29    30 1   
    69    29    32 1   
    70    30    83 1   
    71    30    84 1   
    72    30    85 1   
    73    31    44 1   
    74    31    86 1   
    75    31    87 1   
    76    31    88 1   
    77    32    33 2   
    78    32    89 1   
    79    33    34 1   
    80    33    90 1   
    81    34    35 2   
    82    34    91 1   
    83    35    36 1   
    84    35    37 1   
    85    36    92 1   
    86    36    93 1   
    87    36    94 1   
    88    37    38 2   
    89    37    95 1   
    90    38    39 1   
    91    38    96 1   
    92    39    40 1   
    93    39    97 1   
    94    39    98 1   
    95    40    41 1   
    96    40    42 1   
    97    40    44 1   
    98    41    99 1   
    99    41   100 1   
   100    41   101 1   
   101    42   102 1   
   102    42   103 1   
   103    42   104 1   
   104    43   105 1   
@<TRIPOS>SUBSTRUCTURE
     1 I7D         1 TEMP              0 ****  ****    0 ROOT
