@<TRIPOS>MOLECULE
I7E
   24    24     1     0     0
SMALL
bcc


@<TRIPOS>ATOM
      1 C01         -5.9250    -6.6370   -11.9620 c3         1 I7E      -0.082433
      2 C02         -5.0220    -5.4090   -11.8510 c3         1 I7E       0.000300
      3 C03         -3.9300    -5.5220   -12.9230 c3         1 I7E      -0.082433
      4 C04         -4.3720    -5.4110   -10.4610 c3         1 I7E      -0.082433
      5 C05         -5.7890    -4.1050   -12.0450 ca         1 I7E      -0.064300
      6 C06         -7.1680    -4.0630   -12.2440 ca         1 I7E      -0.127000
      7 C07         -7.8380    -2.8560   -12.4150 ca         1 I7E      -0.129000
      8 C08         -7.1420    -1.6570   -12.3940 ca         1 I7E      -0.131000
      9 C09         -5.7670    -1.6800   -12.1940 ca         1 I7E      -0.129000
     10 C10         -5.1050    -2.8850   -12.0220 ca         1 I7E      -0.127000
     11 H013        -6.7030    -6.6490   -11.1960 hc         1 I7E       0.034922
     12 H012        -6.4100    -6.7010   -12.9370 hc         1 I7E       0.034922
     13 H011        -5.3290    -7.5420   -11.8330 hc         1 I7E       0.034922
     14 H031        -3.2180    -4.6980   -12.8690 hc         1 I7E       0.034922
     15 H033        -3.3670    -6.4500   -12.7950 hc         1 I7E       0.034922
     16 H032        -4.3620    -5.5280   -13.9250 hc         1 I7E       0.034922
     17 H041        -5.1240    -5.3220    -9.6750 hc         1 I7E       0.034922
     18 H043        -3.8260    -6.3430   -10.2990 hc         1 I7E       0.034922
     19 H042        -3.6630    -4.5900   -10.3390 hc         1 I7E       0.034922
     20 H061        -7.7450    -4.9770   -12.2680 ha         1 I7E       0.128000
     21 H071        -8.9090    -2.8590   -12.5690 ha         1 I7E       0.128000
     22 H081        -7.6620    -0.7170   -12.5300 ha         1 I7E       0.129000
     23 H091        -5.2060    -0.7540   -12.1720 ha         1 I7E       0.128000
     24 H101        -4.0330    -2.8690   -11.8670 ha         1 I7E       0.128000
@<TRIPOS>BOND
     1     1     2 1   
     2     1    11 1   
     3     1    12 1   
     4     1    13 1   
     5     2     3 1   
     6     2     4 1   
     7     2     5 1   
     8     3    14 1   
     9     3    15 1   
    10     3    16 1   
    11     4    17 1   
    12     4    18 1   
    13     4    19 1   
    14     5     6 ar  
    15     5    10 ar  
    16     6     7 ar  
    17     6    20 1   
    18     7     8 ar  
    19     7    21 1   
    20     8     9 ar  
    21     8    22 1   
    22     9    10 ar  
    23     9    23 1   
    24    10    24 1   
@<TRIPOS>SUBSTRUCTURE
     1 I7E         1 TEMP              0 ****  ****    0 ROOT
