@<TRIPOS>MOLECULE
I7E
   24    24     1     0     0
SMALL
No Charge or Current Charge


@<TRIPOS>ATOM
      1 C01         -5.9190    -6.6850   -11.9350 c3         1 I7E      -0.082433
      2 C02         -5.0130    -5.4240   -11.8490 c3         1 I7E       0.000300
      3 C03         -3.9230    -5.5440   -12.9480 c3         1 I7E      -0.082433
      4 C04         -4.3370    -5.4170   -10.4510 c3         1 I7E      -0.082433
      5 C05         -5.7960    -4.0970   -12.0460 ca         1 I7E      -0.064300
      6 C06         -7.1950    -4.0590   -12.2790 ca         1 I7E      -0.109000
      7 C07         -7.8660    -2.8350   -12.4520 ca         1 I7E      -0.111000
      8 C08         -7.1580    -1.6260   -12.3970 ca         1 I7E      -0.113000
      9 C09         -5.7750    -1.6420   -12.1670 ca         1 I7E      -0.111000
     10 C10         -5.1030    -2.8630   -11.9930 ca         1 I7E      -0.109000
     11 H013        -6.6950    -6.6680   -11.1600 hc         1 I7E       0.034922
     12 H012        -6.4050    -6.7570   -12.9150 hc         1 I7E       0.034922
     13 H011        -5.3310    -7.5990   -11.7910 hc         1 I7E       0.034922
     14 H031        -3.1920    -4.7300   -12.8840 hc         1 I7E       0.034922
     15 H033        -3.3740    -6.4890   -12.8550 hc         1 I7E       0.034922
     16 H032        -4.3760    -5.5130   -13.9460 hc         1 I7E       0.034922
     17 H041        -5.0860    -5.2950    -9.6600 hc         1 I7E       0.034922
     18 H043        -3.8020    -6.3580   -10.2690 hc         1 I7E       0.034922
     19 H042        -3.6100    -4.6020   -10.3560 hc         1 I7E       0.034922
     20 H061        -7.7880    -4.9670   -12.3310 ha         1 I7E       0.110000
     21 H071        -8.9390    -2.8260   -12.6310 ha         1 I7E       0.110000
     22 H081        -7.6790    -0.6810   -12.5310 ha         1 I7E       0.111000
     23 H091        -5.2220    -0.7060   -12.1230 ha         1 I7E       0.110000
     24 H101        -4.0310    -2.8420   -11.8170 ha         1 I7E       0.110000
@<TRIPOS>BOND
     1     1     2 1   
     2     1    11 1   
     3     1    12 1   
     4     1    13 1   
     5     2     3 1   
     6     2     4 1   
     7     2     5 1   
     8     3    14 1   
     9     3    15 1   
    10     3    16 1   
    11     4    17 1   
    12     4    18 1   
    13     4    19 1   
    14     5     6 ar  
    15     5    10 ar  
    16     6     7 ar  
    17     6    20 1   
    18     7     8 ar  
    19     7    21 1   
    20     8     9 ar  
    21     8    22 1   
    22     9    10 ar  
    23     9    23 1   
    24    10    24 1   
@<TRIPOS>SUBSTRUCTURE
     1 I7E         1 TEMP              0 ****  ****    0 ROOT
