@<TRIPOS>MOLECULE
I7G
   37    36     1     0     0
SMALL
abcg2


@<TRIPOS>ATOM
      1 C10        -12.7300   -19.5830    10.5860 ce         1 I7G      -0.317200
      2 C11        -12.0100   -20.7070    10.5760 c2         1 I7G      -0.117200
      3 C12        -10.7970   -20.9310    11.4100 c3         1 I7G      -0.059200
      4 C13        -11.0260   -21.9770    12.5120 c3         1 I7G      -0.067400
      5 C14        -11.4220   -23.3690    12.0270 c3         1 I7G      -0.077400
      6 C15        -10.3910   -24.0370    11.1240 c3         1 I7G      -0.076400
      7 C02        -13.9530   -19.4410     9.7820 c          1 I7G       0.612900
      8 C04        -16.2730   -18.0630     9.1070 c3         1 I7G       0.036600
      9 C05        -17.3230   -18.8890     9.8450 c3         1 I7G       0.109000
     10 C07        -19.5150   -18.0660     9.1130 c          1 I7G       0.599100
     11 C08        -20.7350   -18.3710     8.2800 c3         1 I7G      -0.180100
     12 C16        -10.7640   -25.4740    10.7830 c3         1 I7G      -0.090100
     13 N06        -18.5500   -19.0060     9.0950 ns         1 I7G      -0.511900
     14 O01        -14.3840   -20.2650     9.0120 o          1 I7G      -0.529100
     15 O09        -19.4200   -17.0380     9.7680 o          1 I7G      -0.603100
     16 S03        -14.7590   -17.8850    10.0800 ss         1 I7G      -0.360600
     17 H101       -12.4410   -18.7470    11.2150 ha         1 I7G       0.199000
     18 H111       -12.3290   -21.5280     9.9400 ha         1 I7G       0.188000
     19 H122        -9.9770   -21.2560    10.7630 hc         1 I7G       0.053700
     20 H121       -10.4830   -19.9920    11.8710 hc         1 I7G       0.053700
     21 H132       -10.1050   -22.0510    13.0970 hc         1 I7G       0.043700
     22 H131       -11.7930   -21.6000    13.1930 hc         1 I7G       0.043700
     23 H141       -12.3870   -23.3340    11.5120 hc         1 I7G       0.041200
     24 H142       -11.5810   -24.0000    12.9070 hc         1 I7G       0.041200
     25 H151        -9.4140   -24.0180    11.6150 hc         1 I7G       0.036700
     26 H152       -10.2760   -23.4670    10.1970 hc         1 I7G       0.036700
     27 H041       -16.0290   -18.4990     8.1390 h1         1 I7G       0.087200
     28 H042       -16.6320   -17.0470     8.9380 h1         1 I7G       0.087200
     29 H052       -17.5300   -18.4390    10.8160 h1         1 I7G       0.064700
     30 H051       -16.9470   -19.8950    10.0270 h1         1 I7G       0.064700
     31 H082       -21.6110   -18.4110     8.9270 hc         1 I7G       0.060033
     32 H083       -20.8980   -17.5640     7.5660 hc         1 I7G       0.060033
     33 H081       -20.6710   -19.3080     7.7310 hc         1 I7G       0.060033
     34 H162       -10.0220   -25.9360    10.1300 hc         1 I7G       0.032700
     35 H161       -10.8380   -26.0850    11.6840 hc         1 I7G       0.032700
     36 H163       -11.7280   -25.5200    10.2730 hc         1 I7G       0.032700
     37 H061       -18.6680   -19.8170     8.5110 hn         1 I7G       0.315500
@<TRIPOS>BOND
     1     1     2 2   
     2     1     7 1   
     3     1    17 1   
     4     2     3 1   
     5     2    18 1   
     6     3     4 1   
     7     3    19 1   
     8     3    20 1   
     9     4     5 1   
    10     4    21 1   
    11     4    22 1   
    12     5     6 1   
    13     5    23 1   
    14     5    24 1   
    15     6    12 1   
    16     6    25 1   
    17     6    26 1   
    18     7    14 2   
    19     7    16 1   
    20     8     9 1   
    21     8    16 1   
    22     8    27 1   
    23     8    28 1   
    24     9    13 1   
    25     9    29 1   
    26     9    30 1   
    27    10    11 1   
    28    10    13 1   
    29    10    15 2   
    30    11    31 1   
    31    11    32 1   
    32    11    33 1   
    33    12    34 1   
    34    12    35 1   
    35    12    36 1   
    36    13    37 1   
@<TRIPOS>SUBSTRUCTURE
     1 I7G         1 TEMP              0 ****  ****    0 ROOT
