@<TRIPOS>MOLECULE
I7G
   37    36     1     0     0
SMALL
No Charge or Current Charge


@<TRIPOS>ATOM
      1 C10        -12.6450   -19.6750    10.6270 ce         1 I7G      -0.317200
      2 C11        -11.7390   -20.6040    10.2430 c2         1 I7G      -0.117200
      3 C12        -10.4520   -20.9250    10.9760 c3         1 I7G      -0.059200
      4 C13        -10.6790   -21.7280    12.2790 c3         1 I7G      -0.067400
      5 C14        -11.4230   -23.0760    12.1040 c3         1 I7G      -0.077400
      6 C15        -10.6760   -24.1100    11.2300 c3         1 I7G      -0.076400
      7 C02        -13.9050   -19.3850     9.8920 c          1 I7G       0.612900
      8 C04        -16.3510   -17.9830     9.6000 c3         1 I7G       0.036600
      9 C05        -17.2960   -19.1840     9.8230 c3         1 I7G       0.109000
     10 C07        -19.5340   -18.2740     9.1050 c          1 I7G       0.599100
     11 C08        -20.6350   -18.4180     8.0630 c3         1 I7G      -0.180100
     12 C16        -11.4060   -25.4640    11.1460 c3         1 I7G      -0.090100
     13 N06        -18.4770   -19.1410     8.9530 ns         1 I7G      -0.511900
     14 O01        -14.2420   -19.9510     8.8630 o          1 I7G      -0.529100
     15 O09        -19.5850   -17.4520    10.0080 o          1 I7G      -0.603100
     16 S03        -14.8650   -18.0740    10.7070 ss         1 I7G      -0.360600
     17 H101       -12.4810   -19.0830    11.5260 ha         1 I7G       0.199000
     18 H111       -11.9020   -21.2020     9.3420 ha         1 I7G       0.188000
     19 H122        -9.7730   -21.4800    10.3170 hc         1 I7G       0.053700
     20 H121        -9.9300   -19.9930    11.2260 hc         1 I7G       0.053700
     21 H132        -9.7070   -21.9140    12.7540 hc         1 I7G       0.043700
     22 H131       -11.2490   -21.1050    12.9790 hc         1 I7G       0.043700
     23 H141       -12.4180   -22.8920    11.6800 hc         1 I7G       0.041200
     24 H142       -11.5860   -23.5080    13.0990 hc         1 I7G       0.041200
     25 H151        -9.6700   -24.2720    11.6360 hc         1 I7G       0.036700
     26 H152       -10.5530   -23.7170    10.2140 hc         1 I7G       0.036700
     27 H041       -16.0280   -17.9470     8.5520 h1         1 I7G       0.087200
     28 H042       -16.8920   -17.0550     9.8210 h1         1 I7G       0.087200
     29 H052       -17.6250   -19.1980    10.8710 h1         1 I7G       0.064700
     30 H051       -16.7580   -20.1210     9.6300 h1         1 I7G       0.064700
     31 H082       -20.9870   -19.4550     8.0570 hc         1 I7G       0.060033
     32 H083       -21.4580   -17.7110     8.2190 hc         1 I7G       0.060033
     33 H081       -20.1970   -18.3150     7.0640 hc         1 I7G       0.060033
     34 H162       -10.8430   -26.1640    10.5160 hc         1 I7G       0.032700
     35 H161       -11.5130   -25.9100    12.1430 hc         1 I7G       0.032700
     36 H163       -12.4050   -25.3400    10.7120 hc         1 I7G       0.032700
     37 H061       -18.5300   -19.7900     8.1750 hn         1 I7G       0.315500
@<TRIPOS>BOND
     1     1     2 2   
     2     1     7 1   
     3     1    17 1   
     4     2     3 1   
     5     2    18 1   
     6     3     4 1   
     7     3    19 1   
     8     3    20 1   
     9     4     5 1   
    10     4    21 1   
    11     4    22 1   
    12     5     6 1   
    13     5    23 1   
    14     5    24 1   
    15     6    12 1   
    16     6    25 1   
    17     6    26 1   
    18     7    14 2   
    19     7    16 1   
    20     8     9 1   
    21     8    16 1   
    22     8    27 1   
    23     8    28 1   
    24     9    13 1   
    25     9    29 1   
    26     9    30 1   
    27    10    11 1   
    28    10    13 1   
    29    10    15 2   
    30    11    31 1   
    31    11    32 1   
    32    11    33 1   
    33    12    34 1   
    34    12    35 1   
    35    12    36 1   
    36    13    37 1   
@<TRIPOS>SUBSTRUCTURE
     1 I7G         1 TEMP              0 ****  ****    0 ROOT
