@<TRIPOS>MOLECULE
I7H
   72    78     1     0     0
SMALL
abcg2


@<TRIPOS>ATOM
      1 C10          2.7720   -23.0330    -7.9840 cp         1 I7H      -0.116500
      2 C15          6.9550   -22.5000    -7.8050 ca         1 I7H      -0.239000
      3 C20          8.8440   -22.7430    -5.4270 c6         1 I7H       0.212800
      4 C21          9.4060   -21.4710    -4.7990 c6         1 I7H       0.159300
      5 C26         11.2970   -21.5570    -6.4790 c6         1 I7H      -0.088400
      6 C02          2.0420   -20.9680    -6.6960 ca         1 I7H       0.136000
      7 C03          1.0350   -20.1380    -6.2810 ca         1 I7H      -0.102000
      8 C04         -0.3020   -20.4240    -6.5980 ca         1 I7H      -0.103000
      9 C05         -0.6030   -21.5550    -7.2980 ca         1 I7H      -0.097000
     10 C06          0.4180   -22.4280    -7.7360 ca         1 I7H      -0.036000
     11 C07          0.0690   -23.6080    -8.4300 ca         1 I7H      -0.093000
     12 C08          1.0280   -24.4800    -8.8550 ca         1 I7H      -0.106000
     13 C09          2.3810   -24.1770    -8.6340 ca         1 I7H      -0.074000
     14 C11          4.2390   -22.8100    -7.9180 cp         1 I7H       0.374500
     15 C12          4.8440   -21.9050    -8.7440 ca         1 I7H       0.145000
     16 C14          6.2410   -21.7460    -8.7590 ca         1 I7H       0.075000
     17 C16          6.2550   -23.4630    -7.0610 ca         1 I7H       0.385900
     18 C18          8.3790   -22.2750    -7.7890 ca         1 I7H       0.463900
     19 C23         10.9210   -21.4210    -4.9980 c6         1 I7H      -0.228700
     20 C27         10.6300   -22.7970    -7.0560 c6         1 I7H       0.214800
     21 C29          8.1380   -20.9760    -9.6510 ca         1 I7H       0.417300
     22 C31         10.1270   -20.1320   -10.6470 c3         1 I7H       0.203600
     23 C32         10.4840   -19.2770   -11.8540 c5         1 I7H       0.169200
     24 C34          8.9910   -18.9760   -13.6740 c5         1 I7H       0.160800
     25 C35          9.4340   -17.5870   -13.2190 c5         1 I7H      -0.099900
     26 C36          9.8680   -17.8630   -11.7830 c5         1 I7H      -0.087900
     27 C37         11.0880   -20.2160   -13.9730 c5         1 I7H       0.160800
     28 C38         12.2660   -20.3840   -13.0290 c5         1 I7H      -0.099900
     29 C39         12.0120   -19.2720   -12.0190 c5         1 I7H      -0.087900
     30 C41          1.7910   -22.1340    -7.4720 ca         1 I7H       0.004000
     31 F13          4.1050   -21.1530    -9.5630 f          1 I7H      -0.141000
     32 N17          4.9570   -23.6220    -7.1200 nb         1 I7H      -0.662000
     33 N19          9.1870   -22.7990    -6.8430 nh         1 I7H      -0.760300
     34 N28          8.9300   -21.5840    -8.7680 nb         1 I7H      -0.352000
     35 N33          9.9650   -19.8930   -13.0970 n3         1 I7H      -0.704600
     36 N40          6.8270   -20.9490    -9.6680 nb         1 I7H      -0.210000
     37 O30          8.7100   -20.2840   -10.6180 os         1 I7H      -0.421300
     38 CL01         3.6390   -20.5580    -6.1530 cl         1 I7H      -0.196000
     39 H201         9.2580   -23.6210    -4.9250 h1         1 I7H       0.072200
     40 H202         7.7690   -22.7580    -5.2780 h1         1 I7H       0.072200
     41 H211         9.1840   -21.5160    -3.7240 h1         1 I7H       0.049700
     42 H1          12.6790   -20.1950    -4.5130 h4         1 I7H      -0.007800
     43 H261        10.9890   -20.6720    -7.0380 hc         1 I7H       0.062200
     44 H262        12.3800   -21.6480    -6.5880 hc         1 I7H       0.062200
     45 H031         1.2700   -19.2630    -5.6900 ha         1 I7H       0.128000
     46 H041        -1.0820   -19.7540    -6.2640 ha         1 I7H       0.118000
     47 H051        -1.6320   -21.8070    -7.5250 ha         1 I7H       0.116000
     48 H071        -0.9800   -23.8100    -8.6110 ha         1 I7H       0.114000
     49 H081         0.7580   -25.3890    -9.3760 ha         1 I7H       0.118000
     50 H091         3.1400   -24.8530    -9.0080 ha         1 I7H       0.122000
     51 H161         6.7890   -24.1610    -6.4260 h4         1 I7H       0.022100
     52 H231        11.3630   -22.2790    -4.4690 hc         1 I7H       0.072700
     53 H272        10.8420   -22.8980    -8.1170 h1         1 I7H       0.063700
     54 H271        11.0210   -23.6860    -6.5540 h1         1 I7H       0.063700
     55 H311        10.6100   -21.1100   -10.7190 h1         1 I7H       0.047200
     56 H312        10.4720   -19.6520    -9.7260 h1         1 I7H       0.047200
     57 H341         7.9880   -19.1930   -13.2920 h1         1 I7H       0.049700
     58 H342         8.9520   -19.0880   -14.7590 h1         1 I7H       0.049700
     59 H351        10.2790   -17.2460   -13.8230 hc         1 I7H       0.048700
     60 H352         8.6480   -16.8340   -13.2950 hc         1 I7H       0.048700
     61 H362         8.9960   -17.8410   -11.1260 hc         1 I7H       0.053200
     62 H361        10.5820   -17.1350   -11.3960 hc         1 I7H       0.053200
     63 H2          10.8840   -21.1160   -14.5600 h1         1 I7H       0.049700
     64 H371        11.3020   -19.4070   -14.6880 h1         1 I7H       0.049700
     65 H382        13.2260   -20.2930   -13.5370 hc         1 I7H       0.048700
     66 H3          12.2390   -21.3630   -12.5450 hc         1 I7H       0.048700
     67 H392        12.3320   -18.3140   -12.4370 hc         1 I7H       0.053200
     68 H391        12.5430   -19.4050   -11.0740 hc         1 I7H       0.053200
     69 H221         9.0110   -19.5820    -4.9770 ho         1 I7H       0.466000
     70 O22          8.7440   -20.3950    -5.4190 oh         1 I7H      -0.654000
     71 C24         11.5780   -20.2110    -4.4070 c          1 I7H       0.581900
     72 O25         11.0020   -19.3060    -3.8540 o          1 I7H      -0.520100
@<TRIPOS>BOND
     1     1    13 ar  
     2     1    14 1   
     3     1    30 ar  
     4     2    16 ar  
     5     2    17 ar  
     6     2    18 ar  
     7     3     4 1   
     8     3    33 1   
     9     3    39 1   
    10     3    40 1   
    11     4    19 1   
    12     4    41 1   
    13     4    70 1   
    14     5    19 1   
    15     5    20 1   
    16     5    43 1   
    17     5    44 1   
    18     6     7 ar  
    19     6    30 ar  
    20     6    38 1   
    21     7     8 ar  
    22     7    45 1   
    23     8     9 ar  
    24     8    46 1   
    25     9    10 ar  
    26     9    47 1   
    27    10    11 ar  
    28    10    30 ar  
    29    11    12 ar  
    30    11    48 1   
    31    12    13 ar  
    32    12    49 1   
    33    13    50 1   
    34    14    15 ar  
    35    14    32 ar  
    36    15    16 ar  
    37    15    31 1   
    38    16    36 ar  
    39    17    32 ar  
    40    17    51 1   
    41    18    33 1   
    42    18    34 ar  
    43    19    52 1   
    44    19    71 1   
    45    20    33 1   
    46    20    53 1   
    47    20    54 1   
    48    21    34 ar  
    49    21    36 ar  
    50    21    37 1   
    51    22    23 1   
    52    22    37 1   
    53    22    55 1   
    54    22    56 1   
    55    23    26 1   
    56    23    29 1   
    57    23    35 1   
    58    24    25 1   
    59    24    35 1   
    60    24    57 1   
    61    24    58 1   
    62    25    26 1   
    63    25    59 1   
    64    25    60 1   
    65    26    61 1   
    66    26    62 1   
    67    27    28 1   
    68    27    35 1   
    69    27    63 1   
    70    27    64 1   
    71    28    29 1   
    72    28    65 1   
    73    28    66 1   
    74    29    67 1   
    75    29    68 1   
    76    42    71 1   
    77    69    70 1   
    78    71    72 2   
@<TRIPOS>SUBSTRUCTURE
     1 I7H         1 TEMP              0 ****  ****    0 ROOT
