@<TRIPOS>MOLECULE
I7H
   72    78     1     0     0
SMALL
No Charge or Current Charge


@<TRIPOS>ATOM
      1 C10          2.5460   -23.1790    -7.8620 cp         1 I7H      -0.116500
      2 C15          6.7330   -22.4760    -7.7480 ca         1 I7H      -0.239000
      3 C20          8.7710   -22.2480    -5.2620 c6         1 I7H       0.212800
      4 C21          9.8240   -21.1500    -4.8930 c6         1 I7H       0.159300
      5 C26         11.3920   -22.2240    -6.6680 c6         1 I7H      -0.088400
      6 C02          1.7530   -20.9380    -6.9560 ca         1 I7H       0.136000
      7 C03          0.6780   -20.0900    -6.6340 ca         1 I7H      -0.102000
      8 C04         -0.6460   -20.5050    -6.8130 ca         1 I7H      -0.103000
      9 C05         -0.9050   -21.7860    -7.3080 ca         1 I7H      -0.097000
     10 C06          0.1540   -22.6520    -7.6380 ca         1 I7H      -0.036000
     11 C07         -0.1730   -23.9330    -8.1180 ca         1 I7H      -0.093000
     12 C08          0.8340   -24.8400    -8.4570 ca         1 I7H      -0.106000
     13 C09          2.1740   -24.4630    -8.3320 ca         1 I7H      -0.074000
     14 C11          4.0090   -22.8850    -7.8400 cp         1 I7H       0.374500
     15 C12          4.6250   -22.1080    -8.8560 ca         1 I7H       0.145000
     16 C14          6.0160   -21.8910    -8.8120 ca         1 I7H       0.075000
     17 C16          6.0560   -23.2720    -6.8070 ca         1 I7H       0.385900
     18 C18          8.1200   -22.2570    -7.6930 ca         1 I7H       0.463900
     19 C23         11.2530   -21.6400    -5.2320 c6         1 I7H      -0.228700
     20 C27         10.3010   -23.2900    -6.9520 c6         1 I7H       0.214800
     21 C29          7.9950   -21.0150    -9.6270 ca         1 I7H       0.417300
     22 C31         10.0360   -20.0050   -10.5600 c3         1 I7H       0.203600
     23 C32         10.4550   -19.1310   -11.7880 c5         1 I7H       0.169200
     24 C34          9.2230   -18.9190   -13.8510 c5         1 I7H       0.160800
     25 C35          9.5870   -17.4860   -13.3810 c5         1 I7H      -0.099900
     26 C36          9.7280   -17.7350   -11.8580 c5         1 I7H      -0.087900
     27 C37         11.5030   -19.7950   -13.8800 c5         1 I7H       0.160800
     28 C38         12.5150   -19.9690   -12.7320 c5         1 I7H      -0.099900
     29 C39         12.0010   -18.8410   -11.8060 c5         1 I7H      -0.087900
     30 C41          1.5140   -22.2480    -7.4860 ca         1 I7H       0.004000
     31 F13          3.8840   -21.5740    -9.8590 f          1 I7H      -0.141000
     32 N17          4.7220   -23.4830    -6.8560 nb         1 I7H      -0.662000
     33 N19          8.9320   -22.7690    -6.6610 nh         1 I7H      -0.760300
     34 N28          8.7450   -21.5400    -8.6390 nb         1 I7H      -0.352000
     35 N33         10.2100   -19.7740   -13.1300 n3         1 I7H      -0.704600
     36 N40          6.6600   -21.1600    -9.7440 nb         1 I7H      -0.210000
     37 O30          8.6130   -20.2650   -10.6020 os         1 I7H      -0.421300
     38 Cl01         3.3500   -20.2650    -6.6090 cl         1 I7H      -0.196000
     39 H201         8.8640   -23.0810    -4.5490 h1         1 I7H       0.072200
     40 H202         7.7640   -21.8310    -5.1140 h1         1 I7H       0.072200
     41 H211         9.7630   -20.9730    -3.8080 h1         1 I7H       0.049700
     42 H1          13.1150   -21.0220    -4.1000 h4         1 I7H      -0.007800
     43 H261        11.3140   -21.4160    -7.4080 hc         1 I7H       0.062200
     44 H262        12.3850   -22.6730    -6.8050 hc         1 I7H       0.062200
     45 H031         0.8770   -19.0990    -6.2330 ha         1 I7H       0.128000
     46 H041        -1.4680   -19.8390    -6.5580 ha         1 I7H       0.118000
     47 H051        -1.9370   -22.1080    -7.4340 ha         1 I7H       0.116000
     48 H071        -1.2140   -24.2300    -8.2250 ha         1 I7H       0.114000
     49 H081         0.5760   -25.8310    -8.8250 ha         1 I7H       0.118000
     50 H091         2.9480   -25.1740    -8.6150 ha         1 I7H       0.122000
     51 H161         6.5800   -23.7710    -5.9940 h4         1 I7H       0.022100
     52 H231        11.4400   -22.4940    -4.5650 hc         1 I7H       0.072700
     53 H272        10.3770   -23.6240    -7.9980 h1         1 I7H       0.063700
     54 H271        10.4940   -24.1780    -6.3320 h1         1 I7H       0.063700
     55 H311        10.6000   -20.9460   -10.5850 h1         1 I7H       0.047200
     56 H312        10.3010   -19.4710    -9.6380 h1         1 I7H       0.047200
     57 H341         8.1990   -19.1730   -13.5410 h1         1 I7H       0.049700
     58 H342         9.2740   -19.0310   -14.9430 h1         1 I7H       0.049700
     59 H351        10.5130   -17.1110   -13.8310 hc         1 I7H       0.048700
     60 H352         8.7980   -16.7620   -13.6130 hc         1 I7H       0.048700
     61 H362         8.7370   -17.7800   -11.3920 hc         1 I7H       0.053200
     62 H361        10.2710   -16.9330   -11.3440 hc         1 I7H       0.053200
     63 H2          11.5460   -20.6240   -14.6000 h1         1 I7H       0.049700
     64 H371        11.7030   -18.8660   -14.4330 h1         1 I7H       0.049700
     65 H382        13.5500   -19.8140   -13.0560 hc         1 I7H       0.048700
     66 H3          12.4500   -20.9600   -12.2670 hc         1 I7H       0.048700
     67 H392        12.2540   -17.8570   -12.2200 hc         1 I7H       0.053200
     68 H391        12.4510   -18.8860   -10.8080 hc         1 I7H       0.053200
     69 H221        10.4360   -19.4890    -5.7130 ho         1 I7H       0.466000
     70 O22          9.5600   -19.9200    -5.5860 oh         1 I7H      -0.654000
     71 C24         12.3660   -20.6600    -4.8390 c          1 I7H       0.581900
     72 O25         12.4310   -19.5320    -5.3140 o          1 I7H      -0.520100
@<TRIPOS>BOND
     1     1    13 ar  
     2     1    14 1   
     3     1    30 ar  
     4     2    16 ar  
     5     2    17 ar  
     6     2    18 ar  
     7     3     4 1   
     8     3    33 1   
     9     3    39 1   
    10     3    40 1   
    11     4    19 1   
    12     4    41 1   
    13     4    70 1   
    14     5    19 1   
    15     5    20 1   
    16     5    43 1   
    17     5    44 1   
    18     6     7 ar  
    19     6    30 ar  
    20     6    38 1   
    21     7     8 ar  
    22     7    45 1   
    23     8     9 ar  
    24     8    46 1   
    25     9    10 ar  
    26     9    47 1   
    27    10    11 ar  
    28    10    30 ar  
    29    11    12 ar  
    30    11    48 1   
    31    12    13 ar  
    32    12    49 1   
    33    13    50 1   
    34    14    15 ar  
    35    14    32 ar  
    36    15    16 ar  
    37    15    31 1   
    38    16    36 ar  
    39    17    32 ar  
    40    17    51 1   
    41    18    33 1   
    42    18    34 ar  
    43    19    52 1   
    44    19    71 1   
    45    20    33 1   
    46    20    53 1   
    47    20    54 1   
    48    21    34 ar  
    49    21    36 ar  
    50    21    37 1   
    51    22    23 1   
    52    22    37 1   
    53    22    55 1   
    54    22    56 1   
    55    23    26 1   
    56    23    29 1   
    57    23    35 1   
    58    24    25 1   
    59    24    35 1   
    60    24    57 1   
    61    24    58 1   
    62    25    26 1   
    63    25    59 1   
    64    25    60 1   
    65    26    61 1   
    66    26    62 1   
    67    27    28 1   
    68    27    35 1   
    69    27    63 1   
    70    27    64 1   
    71    28    29 1   
    72    28    65 1   
    73    28    66 1   
    74    29    67 1   
    75    29    68 1   
    76    42    71 1   
    77    69    70 1   
    78    71    72 2   
@<TRIPOS>SUBSTRUCTURE
     1 I7H         1 TEMP              0 ****  ****    0 ROOT
