@<TRIPOS>MOLECULE
I7J
   57    60     1     0     0
SMALL
bcc


@<TRIPOS>ATOM
      1 N1          93.7310   118.4980    88.6820 n          1 I7J      -0.459800
      2 N3          94.2800   114.3750    82.3040 nb         1 I7J      -0.728000
      3 C4          92.7060   119.1770    89.2570 c          1 I7J       0.760100
      4 C5          93.6500   117.0990    88.2980 c6         1 I7J       0.101000
      5 C6          93.2940   116.9730    86.8200 c6         1 I7J      -0.122900
      6 C7          94.3230   117.7220    85.9870 c6         1 I7J       0.160100
      7 C8          94.4440   119.1700    86.4330 c6         1 I7J      -0.122900
      8 C10         94.0750   116.6690    83.8620 ca         1 I7J       0.768600
      9 C13         93.5720   116.6860    82.5520 ca         1 I7J      -0.482500
     10 C15         92.9770   114.7580    79.6100 ca         1 I7J       0.034800
     11 C17         92.1590   112.6070    78.8750 ca         1 I7J      -0.081000
     12 C20         93.4730   115.0120    78.3400 ca         1 I7J      -0.104000
     13 C21         93.9870   110.6400    76.6020 c3         1 I7J      -0.225300
     14 C1          90.0490   117.8340    91.2520 c3         1 I7J      -0.107100
     15 C11         94.7410   114.5100    83.5280 ca         1 I7J       0.723900
     16 C12         93.6950   115.4850    81.8580 ca         1 I7J       0.492800
     17 C14         92.9230   117.5640    81.6480 cc         1 I7J       0.417800
     18 C16         92.3090   113.5640    79.8540 ca         1 I7J       0.141900
     19 C18         92.6810   112.8770    77.6200 ca         1 I7J      -0.236500
     20 C19         93.3210   114.0730    77.3330 ca         1 I7J      -0.047000
     21 C2          90.5930   118.9160    90.3410 c3         1 I7J       0.172100
     22 C3          89.5850   119.3520    89.2940 c3         1 I7J      -0.107100
     23 C9          94.7370   119.2270    87.9310 c6         1 I7J       0.101000
     24 F1          91.7860   113.3530    81.0590 f          1 I7J      -0.117900
     25 N2          94.6580   115.5830    84.3230 nb         1 I7J      -0.838000
     26 N4          92.6710   116.9560    80.5220 nd         1 I7J      -0.505100
     27 N5          93.1290   115.6900    80.6470 na         1 I7J       0.056100
     28 O1          91.7570   118.3550    89.7060 os         1 I7J      -0.442900
     29 O2          92.6690   120.3850    89.3810 o          1 I7J      -0.590000
     30 O3          93.9410   117.7490    84.5980 os         1 I7J      -0.427100
     31 O4          92.6250   112.2860    75.0560 o          1 I7J      -0.588300
     32 O5          91.3550   110.8210    76.6570 o          1 I7J      -0.588300
     33 S1          92.5310   111.6300    76.3560 sy         1 I7J       1.090300
     34 H1          92.9320   116.5660    88.9120 h1         1 I7J       0.067700
     35 H2          94.6260   116.6430    88.4840 h1         1 I7J       0.067700
     36 H3          92.2990   117.3930    86.6480 hc         1 I7J       0.067700
     37 H4          93.2630   115.9180    86.5440 hc         1 I7J       0.067700
     38 H5          95.2960   117.2290    86.0780 h1         1 I7J       0.071700
     39 H6          95.2470   119.6700    85.8870 hc         1 I7J       0.067700
     40 H7          93.5140   119.7060    86.2230 hc         1 I7J       0.067700
     41 H8          91.6350   111.6860    79.0960 ha         1 I7J       0.177000
     42 H9          93.9840   115.9450    78.1440 ha         1 I7J       0.160000
     43 H10         93.9690   110.2120    77.6010 h1         1 I7J       0.105033
     44 H11         93.9720   109.8470    75.8540 h1         1 I7J       0.105033
     45 H12         94.8700   111.2610    76.4700 h1         1 I7J       0.105033
     46 H13         90.7870   117.5290    91.9940 hc         1 I7J       0.047367
     47 H14         89.1750   118.2100    91.7830 hc         1 I7J       0.047367
     48 H15         89.7420   116.9540    90.6850 hc         1 I7J       0.047367
     49 H16         95.2420   113.6490    83.9550 h5         1 I7J       0.053100
     50 H17         92.6400   118.5960    81.7890 h4         1 I7J       0.064800
     51 H18         93.7130   114.2750    76.3460 ha         1 I7J       0.165000
     52 H19         90.8960   119.7770    90.9420 h1         1 I7J       0.066700
     53 H20         88.6940   119.7430    89.7840 hc         1 I7J       0.047367
     54 H21         89.9830   120.1360    88.6510 hc         1 I7J       0.047367
     55 H22         89.2830   118.5090    88.6700 hc         1 I7J       0.047367
     56 H23         95.7100   118.7740    88.1390 h1         1 I7J       0.067700
     57 H24         94.7840   120.2580    88.2720 h1         1 I7J       0.067700
@<TRIPOS>BOND
     1     1     3 1   
     2     1     4 1   
     3     1    23 1   
     4     2    15 ar  
     5     2    16 ar  
     6     3    28 1   
     7     3    29 2   
     8     4     5 1   
     9     4    34 1   
    10     4    35 1   
    11     5     6 1   
    12     5    36 1   
    13     5    37 1   
    14     6     7 1   
    15     6    30 1   
    16     6    38 1   
    17     7    23 1   
    18     7    39 1   
    19     7    40 1   
    20     8     9 ar  
    21     8    25 ar  
    22     8    30 1   
    23     9    16 ar  
    24     9    17 1   
    25    10    12 ar  
    26    10    18 ar  
    27    10    27 1   
    28    11    18 ar  
    29    11    19 ar  
    30    11    41 1   
    31    12    20 ar  
    32    12    42 1   
    33    13    33 1   
    34    13    43 1   
    35    13    44 1   
    36    13    45 1   
    37    14    21 1   
    38    14    46 1   
    39    14    47 1   
    40    14    48 1   
    41    15    25 ar  
    42    15    49 1   
    43    16    27 1   
    44    17    26 2   
    45    17    50 1   
    46    18    24 1   
    47    19    20 ar  
    48    19    33 1   
    49    20    51 1   
    50    21    22 1   
    51    21    28 1   
    52    21    52 1   
    53    22    53 1   
    54    22    54 1   
    55    22    55 1   
    56    23    56 1   
    57    23    57 1   
    58    26    27 1   
    59    31    33 2   
    60    32    33 2   
@<TRIPOS>SUBSTRUCTURE
     1 I7J         1 TEMP              0 ****  ****    0 ROOT
