@<TRIPOS>MOLECULE
I7J
   57    60     1     0     0
SMALL
No Charge or Current Charge


@<TRIPOS>ATOM
      1 N1          92.8110   118.9760    88.2240 n          1 I7J      -0.392800
      2 N3          93.9240   114.1170    82.2120 nb         1 I7J      -0.202000
      3 C4          92.5860   119.3790    89.5570 c          1 I7J       0.644100
      4 C5          92.3320   117.6440    87.7330 c6         1 I7J       0.101000
      5 C6          92.3230   117.4700    86.1980 c6         1 I7J      -0.122900
      6 C7          93.6460   117.9380    85.5640 c6         1 I7J       0.183300
      7 C8          93.8440   119.4180    85.9170 c6         1 I7J      -0.122900
      8 C10         93.7130   116.5510    83.5440 ca         1 I7J       0.440300
      9 C13         93.4580   116.4330    82.1820 ca         1 I7J      -0.351900
     10 C15         93.2400   114.5460    79.2270 ca         1 I7J       0.034800
     11 C17         92.3020   112.5370    78.2020 ca         1 I7J      -0.063000
     12 C20         94.2050   114.6070    78.2030 ca         1 I7J      -0.086000
     13 C21         94.3890   110.0910    76.5380 c3         1 I7J      -0.336100
     14 C1          90.7830   117.5470    92.1730 c3         1 I7J      -0.107100
     15 C11         94.1680   114.2870    83.5350 ca         1 I7J       0.197900
     16 C12         93.5630   115.2330    81.5510 ca         1 I7J       0.164500
     17 C14         93.0740   117.4050    81.2000 cc         1 I7J       0.417800
     18 C16         92.2870   113.5060    79.2190 ca         1 I7J       0.177000
     19 C18         93.2710   112.5980    77.1760 ca         1 I7J      -0.236500
     20 C19         94.2240   113.6390    77.1830 ca         1 I7J      -0.029000
     21 C2          91.3350   118.8490    91.5650 c3         1 I7J       0.195300
     22 C3          90.2740   119.9720    91.5230 c3         1 I7J      -0.107100
     23 C9          93.9040   119.6320    87.4450 c6         1 I7J       0.101000
     24 F1          91.3440   113.4290    80.1870 f          1 I7J      -0.153000
     25 N2          94.0840   115.4470    84.2340 nb         1 I7J      -0.312000
     26 N4          92.9400   116.8490    79.9870 nd         1 I7J      -0.505100
     27 N5          93.2390   115.5100    80.2350 na         1 I7J       0.056100
     28 O1          91.7280   118.5380    90.2170 os         1 I7J      -0.466100
     29 O2          93.1110   120.3630    90.0580 o          1 I7J      -0.541000
     30 O3          93.6120   117.7940    84.1290 os         1 I7J      -0.450300
     31 O4          93.9750   111.9050    74.6920 o          1 I7J      -0.517500
     32 O5          91.9680   110.7360    75.7690 o          1 I7J      -0.517500
     33 S1          93.3000   111.3470    75.8710 sy         1 I7J       1.059500
     34 H1          91.3120   117.4560    88.0970 h1         1 I7J       0.067700
     35 H2          92.9760   116.8690    88.1730 h1         1 I7J       0.067700
     36 H3          91.4890   118.0470    85.7740 hc         1 I7J       0.067700
     37 H4          92.1250   116.4180    85.9570 hc         1 I7J       0.067700
     38 H5          94.4910   117.3610    85.9710 h1         1 I7J       0.071700
     39 H6          94.7670   119.7940    85.4570 hc         1 I7J       0.067700
     40 H7          93.0200   120.0120    85.4980 hc         1 I7J       0.067700
     41 H8          91.5570   111.7430    78.2190 ha         1 I7J       0.159000
     42 H9          94.9430   115.4060    78.2010 ha         1 I7J       0.142000
     43 H10         93.9560   109.7250    77.4740 h1         1 I7J       0.105033
     44 H11         94.4670   109.2820    75.8040 h1         1 I7J       0.105033
     45 H12         95.3680   110.5480    76.7160 h1         1 I7J       0.105033
     46 H13         91.5560   116.7690    92.1780 hc         1 I7J       0.047367
     47 H14         90.4610   117.7120    93.2070 hc         1 I7J       0.047367
     48 H15         89.9250   117.1800    91.5980 hc         1 I7J       0.047367
     49 H16         94.4640   113.4000    84.0930 h5         1 I7J       0.053100
     50 H17         92.8890   118.4680    81.2880 h4         1 I7J       0.064800
     51 H18         94.9820   113.7040    76.4030 ha         1 I7J       0.147000
     52 H19         92.1960   119.1740    92.1660 h1         1 I7J       0.066700
     53 H20         89.8920   120.1720    92.5310 hc         1 I7J       0.047367
     54 H21         90.6980   120.9050    91.1350 hc         1 I7J       0.047367
     55 H22         89.4280   119.6840    90.8870 hc         1 I7J       0.047367
     56 H23         94.8640   119.2470    87.8180 h1         1 I7J       0.067700
     57 H24         93.8970   120.7140    87.6440 h1         1 I7J       0.067700
@<TRIPOS>BOND
     1     1     3 1   
     2     1     4 1   
     3     1    23 1   
     4     2    15 ar  
     5     2    16 ar  
     6     3    28 1   
     7     3    29 2   
     8     4     5 1   
     9     4    34 1   
    10     4    35 1   
    11     5     6 1   
    12     5    36 1   
    13     5    37 1   
    14     6     7 1   
    15     6    30 1   
    16     6    38 1   
    17     7    23 1   
    18     7    39 1   
    19     7    40 1   
    20     8     9 ar  
    21     8    25 ar  
    22     8    30 1   
    23     9    16 ar  
    24     9    17 1   
    25    10    12 ar  
    26    10    18 ar  
    27    10    27 1   
    28    11    18 ar  
    29    11    19 ar  
    30    11    41 1   
    31    12    20 ar  
    32    12    42 1   
    33    13    33 1   
    34    13    43 1   
    35    13    44 1   
    36    13    45 1   
    37    14    21 1   
    38    14    46 1   
    39    14    47 1   
    40    14    48 1   
    41    15    25 ar  
    42    15    49 1   
    43    16    27 1   
    44    17    26 2   
    45    17    50 1   
    46    18    24 1   
    47    19    20 ar  
    48    19    33 1   
    49    20    51 1   
    50    21    22 1   
    51    21    28 1   
    52    21    52 1   
    53    22    53 1   
    54    22    54 1   
    55    22    55 1   
    56    23    56 1   
    57    23    57 1   
    58    26    27 1   
    59    31    33 2   
    60    32    33 2   
@<TRIPOS>SUBSTRUCTURE
     1 I7J         1 TEMP              0 ****  ****    0 ROOT
