@<TRIPOS>MOLECULE
I7K
   46    49     1     0     0
SMALL
No Charge or Current Charge


@<TRIPOS>ATOM
      1 C16         -5.4570   -60.1430    37.5870 c6         1 I7K      -0.198700
      2 C17         -4.9920   -59.1740    36.4710 c          1 I7K       0.719000
      3 C18         -4.4020   -60.2900    38.7300 c6         1 I7K      -0.068900
      4 C19         -4.7620   -59.4100    39.9510 c6         1 I7K       0.214800
      5 C15         -6.8580   -59.7490    38.1580 c6         1 I7K      -0.068900
      6 C13        -11.7860   -59.6820    42.2600 c          1 I7K       0.593300
      7 C11        -14.2750   -60.0920    42.4390 ca         1 I7K      -0.072000
      8 C12        -12.9580   -60.4750    42.7840 ca         1 I7K      -0.117600
      9 C10        -15.3800   -60.8160    42.9150 ca         1 I7K      -0.096000
     10 C1          -7.7480   -60.8760    43.3330 ca         1 I7K       0.244100
     11 C2          -8.8520   -61.6220    43.8270 ca         1 I7K       0.164100
     12 C6         -11.3680   -62.0440    44.0100 c          1 I7K       0.611300
     13 C5         -10.1830   -61.2550    43.4890 ca         1 I7K      -0.206600
     14 C4         -10.3940   -60.1260    42.6520 ca         1 I7K      -0.166600
     15 C8         -13.8800   -62.3210    44.0910 ca         1 I7K      -0.066000
     16 C3          -9.2880   -59.3960    42.1660 ca         1 I7K       0.029000
     17 C7         -12.7580   -61.6020    43.6190 ca         1 I7K      -0.130600
     18 O7          -5.5400   -58.8630    42.8260 o          1 I7K      -0.551000
     19 O           -7.0790   -57.5740    41.2160 o          1 I7K      -0.551000
     20 N           -6.0580   -59.8210    40.5610 n3         1 I7K      -0.765500
     21 O6          -4.8490   -59.6280    35.3460 o          1 I7K      -0.727500
     22 O5          -4.7680   -58.0090    36.7640 o          1 I7K      -0.727500
     23 C14         -7.0740   -60.3180    39.5830 c6         1 I7K       0.214800
     24 C           -7.9710   -59.7690    42.4930 ca         1 I7K      -0.337500
     25 C9         -15.1820   -61.9300    43.7410 ca         1 I7K      -0.109000
     26 O2          -8.6240   -62.7030    44.6420 oh         1 I7K      -0.519100
     27 O1          -6.4730   -61.2350    43.6900 oh         1 I7K      -0.508100
     28 H11         -5.5640   -61.1320    37.1210 hc         1 I7K       0.034700
     29 H14         -4.3480   -61.3380    39.0550 hc         1 I7K       0.050700
     30 H13         -3.3980   -60.0340    38.3640 hc         1 I7K       0.050700
     31 H15         -3.9540   -59.4810    40.6940 h1         1 I7K       0.046450
     32 H16         -4.8060   -58.3600    39.6260 h1         1 I7K       0.046450
     33 H10         -7.6500   -60.1060    37.4860 hc         1 I7K       0.050700
     34 H9          -6.9640   -58.6560    38.2000 hc         1 I7K       0.050700
     35 H6         -14.4490   -59.2300    41.7980 ha         1 I7K       0.140000
     36 H5         -16.3880   -60.5110    42.6430 ha         1 I7K       0.117000
     37 H3         -13.7480   -63.1900    44.7340 ha         1 I7K       0.135000
     38 H2          -9.4560   -58.5340    41.5200 ha         1 I7K       0.164000
     39 H7          -7.0140   -61.4140    39.5260 h1         1 I7K       0.046450
     40 H8          -8.1000   -60.0840    39.8990 h1         1 I7K       0.046450
     41 H4         -16.0370   -62.4920    44.1110 ha         1 I7K       0.116000
     42 H1          -9.5120   -63.0780    44.8710 ho         1 I7K       0.508000
     43 H           -5.8740   -60.4950    43.4320 ho         1 I7K       0.518000
     44 S           -6.6040   -58.8230    41.8170 sy         1 I7K       1.158600
     45 O3         -11.9570   -58.7070    41.5360 o          1 I7K      -0.511100
     46 O4         -11.2030   -63.0210    44.7360 o          1 I7K      -0.570100
@<TRIPOS>BOND
     1     1     2 1   
     2     1     3 1   
     3     1     5 1   
     4     1    28 1   
     5     2    21 1   
     6     2    22 1   
     7     3     4 1   
     8     3    29 1   
     9     3    30 1   
    10     4    20 1   
    11     4    31 1   
    12     4    32 1   
    13     5    23 1   
    14     5    33 1   
    15     5    34 1   
    16     6     8 1   
    17     6    14 1   
    18     6    45 2   
    19     7     8 ar  
    20     7     9 ar  
    21     7    35 1   
    22     8    17 ar  
    23     9    25 ar  
    24     9    36 1   
    25    10    11 ar  
    26    10    24 ar  
    27    10    27 1   
    28    11    13 ar  
    29    11    26 1   
    30    12    13 1   
    31    12    17 1   
    32    12    46 2   
    33    13    14 ar  
    34    14    16 ar  
    35    15    17 ar  
    36    15    25 ar  
    37    15    37 1   
    38    16    24 ar  
    39    16    38 1   
    40    18    44 2   
    41    19    44 2   
    42    20    23 1   
    43    20    44 1   
    44    23    39 1   
    45    23    40 1   
    46    24    44 1   
    47    25    41 1   
    48    26    42 1   
    49    27    43 1   
@<TRIPOS>SUBSTRUCTURE
     1 I7K         1 TEMP              0 ****  ****    0 ROOT
