@<TRIPOS>MOLECULE
I7K
   46    49     1     0     0
SMALL
abcg2


@<TRIPOS>ATOM
      1 C16         -5.1620   -59.9950    37.6040 c6         1 I7K      -0.198700
      2 C17         -4.3230   -58.8460    36.9850 c          1 I7K       0.719000
      3 C18         -4.5270   -60.6290    38.8410 c6         1 I7K      -0.068900
      4 C19         -4.8560   -59.8580    40.1040 c6         1 I7K       0.214800
      5 C15         -6.6040   -59.5380    37.9100 c6         1 I7K      -0.068900
      6 C13        -11.9630   -59.8700    42.1220 c          1 I7K       0.593300
      7 C11        -14.3610   -60.3580    42.5190 ca         1 I7K      -0.072000
      8 C12        -13.0300   -60.6210    42.8250 ca         1 I7K      -0.117600
      9 C10        -15.3740   -61.0440    43.1680 ca         1 I7K      -0.096000
     10 C1          -7.8820   -60.6740    43.1650 ca         1 I7K       0.244100
     11 C2          -8.9250   -61.4040    43.7930 ca         1 I7K       0.164100
     12 C6         -11.3190   -61.8860    44.1370 c          1 I7K       0.611300
     13 C5         -10.2530   -61.1450    43.4540 ca         1 I7K      -0.206600
     14 C4         -10.5630   -60.1700    42.4840 ca         1 I7K      -0.166600
     15 C8         -13.7440   -62.2700    44.4390 ca         1 I7K      -0.066000
     16 C3          -9.5500   -59.4740    41.8640 ca         1 I7K       0.029000
     17 C7         -12.7200   -61.5840    43.7910 ca         1 I7K      -0.130600
     18 O7          -5.8890   -58.5960    42.3870 o          1 I7K      -0.551000
     19 O           -7.5480   -57.6770    40.7440 o          1 I7K      -0.551000
     20 N           -6.3210   -59.9110    40.3280 n3         1 I7K      -0.765500
     21 O6          -4.9240   -58.1190    36.1670 o          1 I7K      -0.727500
     22 O5          -3.1260   -58.7510    37.3190 o          1 I7K      -0.727500
     23 C14         -7.1460   -60.2280    39.1500 c6         1 I7K       0.214800
     24 C           -8.2240   -59.7380    42.1960 ca         1 I7K      -0.337500
     25 C9         -15.0660   -62.0000    44.1280 ca         1 I7K      -0.109000
     26 O2          -8.5490   -62.2950    44.6940 oh         1 I7K      -0.519100
     27 O1          -6.6530   -60.9580    43.5710 oh         1 I7K      -0.508100
     28 H11         -5.2150   -60.7730    36.8330 hc         1 I7K       0.034700
     29 H14         -4.8480   -61.6670    38.9590 hc         1 I7K       0.050700
     30 H13         -3.4440   -60.6500    38.7330 hc         1 I7K       0.050700
     31 H15         -4.3500   -60.2940    40.9650 h1         1 I7K       0.046450
     32 H16         -4.5010   -58.8290    39.9910 h1         1 I7K       0.046450
     33 H10         -7.2690   -59.7440    37.0700 hc         1 I7K       0.050700
     34 H9          -6.6460   -58.4600    38.0740 hc         1 I7K       0.050700
     35 H6         -14.6030   -59.6140    41.7730 ha         1 I7K       0.140000
     36 H5         -16.4070   -60.8340    42.9250 ha         1 I7K       0.117000
     37 H3         -13.5080   -63.0150    45.1870 ha         1 I7K       0.135000
     38 H2          -9.7830   -58.7230    41.1230 ha         1 I7K       0.164000
     39 H7          -7.1590   -61.3120    39.0290 h1         1 I7K       0.046450
     40 H8          -8.1800   -59.9340    39.3330 h1         1 I7K       0.046450
     41 H4         -15.8580   -62.5350    44.6350 ha         1 I7K       0.116000
     42 H1          -9.3620   -62.7170    45.0550 ho         1 I7K       0.508000
     43 H           -6.0240   -60.2690    43.2900 ho         1 I7K       0.518000
     44 S           -6.9350   -58.8280    41.3860 sy         1 I7K       1.158600
     45 O3         -12.2340   -59.0360    41.2820 o          1 I7K      -0.511100
     46 O4         -11.0540   -62.7360    44.9810 o          1 I7K      -0.570100
@<TRIPOS>BOND
     1     1     2 1   
     2     1     3 1   
     3     1     5 1   
     4     1    28 1   
     5     2    21 1   
     6     2    22 1   
     7     3     4 1   
     8     3    29 1   
     9     3    30 1   
    10     4    20 1   
    11     4    31 1   
    12     4    32 1   
    13     5    23 1   
    14     5    33 1   
    15     5    34 1   
    16     6     8 1   
    17     6    14 1   
    18     6    45 2   
    19     7     8 ar  
    20     7     9 ar  
    21     7    35 1   
    22     8    17 ar  
    23     9    25 ar  
    24     9    36 1   
    25    10    11 ar  
    26    10    24 ar  
    27    10    27 1   
    28    11    13 ar  
    29    11    26 1   
    30    12    13 1   
    31    12    17 1   
    32    12    46 2   
    33    13    14 ar  
    34    14    16 ar  
    35    15    17 ar  
    36    15    25 ar  
    37    15    37 1   
    38    16    24 ar  
    39    16    38 1   
    40    18    44 2   
    41    19    44 2   
    42    20    23 1   
    43    20    44 1   
    44    23    39 1   
    45    23    40 1   
    46    24    44 1   
    47    25    41 1   
    48    26    42 1   
    49    27    43 1   
@<TRIPOS>SUBSTRUCTURE
     1 I7K         1 TEMP              0 ****  ****    0 ROOT
