@<TRIPOS>MOLECULE
I7L
   23    24     1     0     0
SMALL
No Charge or Current Charge


@<TRIPOS>ATOM
      1 C10        -23.6780   -33.8300   -42.1230 ca         1 I7L      -0.139000
      2 C13        -22.2650   -33.3970   -39.7260 ca         1 I7L      -0.025000
      3 O01        -17.8870   -31.2270   -37.6550 o          1 I7L      -0.723500
      4 C02        -18.6360   -32.0860   -37.2130 c          1 I7L       0.727000
      5 O03        -18.3000   -33.2470   -37.0300 o          1 I7L      -0.723500
      6 C04        -20.1150   -31.7220   -37.0150 c3         1 I7L      -0.190100
      7 C05        -20.8790   -31.9610   -38.3140 ca         1 I7L       0.003700
      8 C06        -20.9140   -30.9650   -39.3100 ca         1 I7L      -0.067000
      9 C07        -21.6190   -31.1790   -40.5070 ca         1 I7L      -0.131000
     10 C08        -22.2960   -32.3940   -40.7200 ca         1 I7L      -0.052000
     11 C09        -23.0040   -32.6140   -41.9170 ca         1 I7L      -0.095000
     12 C11        -23.6470   -34.8290   -41.1350 ca         1 I7L      -0.131000
     13 C12        -22.9410   -34.6140   -39.9380 ca         1 I7L      -0.098000
     14 C14        -21.5570   -33.1770   -38.5290 ca         1 I7L      -0.140000
     15 H1         -24.2240   -33.9980   -43.0480 ha         1 I7L       0.092000
     16 H3         -20.2120   -30.6550   -36.7790 hc         1 I7L       0.032200
     17 H4         -20.5630   -32.3680   -36.2500 hc         1 I7L       0.032200
     18 H5         -20.3920   -30.0230   -39.1560 ha         1 I7L       0.131000
     19 H6         -21.6370   -30.4010   -41.2670 ha         1 I7L       0.095000
     20 H7         -23.0330   -31.8460   -42.6860 ha         1 I7L       0.097000
     21 H8         -24.1690   -35.7700   -41.2960 ha         1 I7L       0.093000
     22 H9         -22.9220   -35.3910   -39.1780 ha         1 I7L       0.103000
     23 H10        -21.5320   -33.9510   -37.7660 ha         1 I7L       0.110000
@<TRIPOS>BOND
     1     1    11 ar  
     2     1    12 ar  
     3     1    15 1   
     4     2    10 ar  
     5     2    13 ar  
     6     2    14 ar  
     7     3     4 1   
     8     4     5 1   
     9     4     6 1   
    10     6     7 1   
    11     6    16 1   
    12     6    17 1   
    13     7     8 ar  
    14     7    14 ar  
    15     8     9 ar  
    16     8    18 1   
    17     9    10 ar  
    18     9    19 1   
    19    10    11 ar  
    20    11    20 1   
    21    12    13 ar  
    22    12    21 1   
    23    13    22 1   
    24    14    23 1   
@<TRIPOS>SUBSTRUCTURE
     1 I7L         1 TEMP              0 ****  ****    0 ROOT
