@<TRIPOS>MOLECULE
I7L
   23    24     1     0     0
SMALL
abcg2


@<TRIPOS>ATOM
      1 C10        -23.6800   -33.7930   -42.1350 ca         1 I7L      -0.139000
      2 C13        -22.2910   -33.4100   -39.7270 ca         1 I7L      -0.025000
      3 O01        -18.0660   -31.1350   -38.0210 o          1 I7L      -0.723500
      4 C02        -18.5900   -31.9760   -37.2650 c          1 I7L       0.727000
      5 O03        -18.0330   -32.9280   -36.6900 o          1 I7L      -0.723500
      6 C04        -20.1180   -31.8120   -37.0280 c3         1 I7L      -0.190100
      7 C05        -20.8900   -32.0240   -38.2950 ca         1 I7L       0.003700
      8 C06        -20.8910   -31.0290   -39.3070 ca         1 I7L      -0.067000
      9 C07        -21.5670   -31.2120   -40.4800 ca         1 I7L      -0.131000
     10 C08        -22.2830   -32.4070   -40.7290 ca         1 I7L      -0.052000
     11 C09        -22.9910   -32.6270   -41.9320 ca         1 I7L      -0.095000
     12 C11        -23.6890   -34.7920   -41.1390 ca         1 I7L      -0.131000
     13 C12        -23.0110   -34.6050   -39.9650 ca         1 I7L      -0.098000
     14 C14        -21.5850   -33.1860   -38.5220 ca         1 I7L      -0.140000
     15 H1         -24.2180   -33.9530   -43.0600 ha         1 I7L       0.092000
     16 H3         -20.3050   -30.7990   -36.6570 hc         1 I7L       0.032200
     17 H4         -20.4660   -32.5100   -36.2650 hc         1 I7L       0.032200
     18 H5         -20.3490   -30.1090   -39.1360 ha         1 I7L       0.131000
     19 H6         -21.5580   -30.4370   -41.2390 ha         1 I7L       0.095000
     20 H7         -22.9820   -31.8580   -42.6960 ha         1 I7L       0.097000
     21 H8         -24.2360   -35.7110   -41.3090 ha         1 I7L       0.093000
     22 H9         -23.0190   -35.3740   -39.2010 ha         1 I7L       0.103000
     23 H10        -21.6050   -33.9590   -37.7610 ha         1 I7L       0.110000
@<TRIPOS>BOND
     1     1    11 ar  
     2     1    12 ar  
     3     1    15 1   
     4     2    10 ar  
     5     2    13 ar  
     6     2    14 ar  
     7     3     4 1   
     8     4     5 1   
     9     4     6 1   
    10     6     7 1   
    11     6    16 1   
    12     6    17 1   
    13     7     8 ar  
    14     7    14 ar  
    15     8     9 ar  
    16     8    18 1   
    17     9    10 ar  
    18     9    19 1   
    19    10    11 ar  
    20    11    20 1   
    21    12    13 ar  
    22    12    21 1   
    23    13    22 1   
    24    14    23 1   
@<TRIPOS>SUBSTRUCTURE
     1 I7L         1 TEMP              0 ****  ****    0 ROOT
