@<TRIPOS>MOLECULE
I7M
  100   106     1     0     0
SMALL
No Charge or Current Charge


@<TRIPOS>ATOM
      1 C1         -12.2960    22.7210   -19.5730 cp         1 I7M      -0.032000
      2 C2         -11.7410    23.2630   -20.7630 ca         1 I7M      -0.115000
      3 O3         -22.2430    15.5680   -16.0950 o          1 I7M      -0.356000
      4 C4         -13.4320    22.1650   -22.1640 ca         1 I7M      -0.116000
      5 C5         -13.9820    21.6090   -21.0000 ca         1 I7M      -0.101000
      6 C6         -13.4130    21.8760   -19.7780 ca         1 I7M      -0.078000
      7 C10        -16.4630    18.9460   -21.8350 c2         1 I7M       0.208000
      8 C11        -16.5580    17.8680   -22.6490 c2         1 I7M      -0.807000
      9 C12        -17.6820    17.1000   -22.5690 c2         1 I7M      -0.054000
     10 C13        -18.6600    17.4170   -21.6960 c2         1 I7M      -0.129000
     11 C14        -18.4860    18.5240   -20.9370 c2         1 I7M       0.153000
     12 C15        -19.1490    19.7800   -18.9420 c3         1 I7M      -0.054000
     13 C16        -19.8990    16.5370   -21.5530 c3         1 I7M      -0.018000
     14 C17        -20.8550    14.7650   -20.0730 c3         1 I7M      -0.104000
     15 C18        -20.5770    13.9520   -18.7880 c5         1 I7M       0.032000
     16 C19        -21.6690    12.8910   -18.4460 c5         1 I7M      -0.163000
     17 C20        -22.6700    13.6960   -17.5570 c5         1 I7M      -0.200000
     18 C21        -21.8000    14.6660   -16.7940 c          1 I7M       0.305000
     19 C22        -11.7330    23.0120   -18.2460 cp         1 I7M      -0.077000
     20 C23        -10.6020    22.2920   -17.8060 ca         1 I7M      -0.047000
     21 C24        -10.0340    22.5050   -16.5440 ca         1 I7M      -0.243000
     22 C25        -10.5990    23.4400   -15.6730 ca         1 I7M      -0.014000
     23 C26        -11.7230    24.1860   -16.0670 ca         1 I7M      -0.173000
     24 C27        -12.2940    23.9970   -17.3730 ca         1 I7M      -0.709000
     25 C28        -12.2360    25.0810   -15.1420 c          1 I7M       0.346000
     26 C29        -13.3410    25.1380   -12.8710 c2         1 I7M       0.133000
     27 C3         -12.2930    22.9880   -22.0380 ca         1 I7M      -0.136000
     28 C30        -12.7150    26.2180   -12.3530 c2         1 I7M      -0.200000
     29 C31        -13.1890    26.7890   -11.2320 c2         1 I7M      -0.070000
     30 C32        -14.2810    26.2650   -10.6390 c2         1 I7M      -0.179000
     31 C33        -14.8420    25.1730   -11.2150 c2         1 I7M      -0.005000
     32 C34        -14.8600    26.8840    -9.3750 c3         1 I7M      -0.021000
     33 C35        -16.5170    28.3650   -10.5040 c3         1 I7M      -0.100000
     34 C36        -17.9710    28.4070   -11.0350 c5         1 I7M       0.035000
     35 C37        -19.0930    28.4080    -9.9450 c5         1 I7M      -0.161000
     36 C38        -19.4790    26.8990    -9.8090 c5         1 I7M      -0.194000
     37 C39        -19.2150    26.3080   -11.1710 c          1 I7M       0.315000
     38 C7         -14.0640    21.1540   -18.6260 c5         1 I7M      -0.117000
     39 C8         -14.8680    20.0630   -19.4400 c5         1 I7M      -0.174000
     40 C9         -15.2070    20.7380   -20.8380 c5         1 I7M       0.093000
     41 Cl1        -15.1620    17.4480   -23.8370 cl         1 I7M       1.673000
     42 Cl2        -13.7740    25.0640   -17.9590 cl         1 I7M       1.657000
     43 N1         -17.4220    19.2610   -21.0240 n2         1 I7M      -0.264000
     44 N2         -19.7460    15.6880   -20.3610 n7         1 I7M      -0.278000
     45 N3         -20.6720    14.7850   -17.5930 ns         1 I7M      -0.374000
     46 N4         -12.8860    24.5130   -14.0380 ns         1 I7M      -0.336000
     47 N5         -14.3820    24.6240   -12.2970 n2         1 I7M      -0.212000
     48 N6         -16.2680    27.2390    -9.5870 n7         1 I7M      -0.294000
     49 N7         -18.3180    27.1880   -11.7570 ns         1 I7M      -0.374000
     50 O1         -15.3030    19.7150   -21.8840 os         1 I7M      -0.228000
     51 O2         -19.4580    18.8850   -20.0280 os         1 I7M      -0.181000
     52 O4         -19.2390    25.1050   -11.3980 o          1 I7M      -0.364000
     53 O5         -12.1110    26.2900   -15.3000 o          1 I7M      -0.350000
     54 H1         -10.8670    23.9090   -20.6900 ha         1 I7M       0.141000
     55 H2         -13.8690    21.9640   -23.1400 ha         1 I7M       0.127000
     56 H3         -17.8000    16.2110   -23.1970 ha         1 I7M       0.119000
     57 H4         -20.0230    19.9170   -18.2940 h1         1 I7M       0.088333
     58 H5         -18.3290    19.3780   -18.3320 h1         1 I7M       0.088333
     59 H6         -18.8490    20.7660   -19.3220 h1         1 I7M       0.088333
     60 H7         -20.7980    17.1620   -21.4660 h1         1 I7M       0.081500
     61 H8         -20.0250    15.9130   -22.4470 h1         1 I7M       0.081500
     62 H9         -20.9880    14.0680   -20.9120 h1         1 I7M       0.079000
     63 H10        -21.7930    15.3220   -19.9480 h1         1 I7M       0.079000
     64 H11        -19.5910    13.4740   -18.8840 h1         1 I7M       0.095000
     65 H12        -22.1360    12.4490   -19.3360 hc         1 I7M       0.094500
     66 H13        -21.2250    12.0630   -17.8780 hc         1 I7M       0.094500
     67 H14        -23.4040    14.2430   -18.1600 hc         1 I7M       0.115000
     68 H15        -23.2280    13.0430   -16.8760 hc         1 I7M       0.115000
     69 H16        -10.1590    21.5410   -18.4570 ha         1 I7M       0.115000
     70 H17         -9.1650    21.9310   -16.2330 ha         1 I7M       0.121000
     71 H18        -10.1630    23.5910   -14.6860 ha         1 I7M       0.128000
     72 H19        -11.8390    23.4240   -22.9260 ha         1 I7M       0.129000
     73 H20        -11.8270    26.6340   -12.8280 ha         1 I7M       0.178000
     74 H21        -12.6930    27.6670   -10.8130 ha         1 I7M       0.132000
     75 H22        -15.7280    24.7250   -10.7650 h4         1 I7M       0.169000
     76 H23        -14.7760    26.1660    -8.5480 h1         1 I7M       0.078000
     77 H24        -14.2910    27.7810    -9.0910 h1         1 I7M       0.078000
     78 H25        -15.8520    28.3000   -11.3750 h1         1 I7M       0.079500
     79 H26        -16.2920    29.3120    -9.9950 h1         1 I7M       0.079500
     80 H27        -18.0610    29.2940   -11.6800 h1         1 I7M       0.099000
     81 H28        -18.7710    28.8560    -8.9960 hc         1 I7M       0.090500
     82 H29        -20.5260    26.7640    -9.5170 hc         1 I7M       0.115000
     83 H30        -14.7310    21.8030   -18.0470 hc         1 I7M       0.103500
     84 H31        -13.3450    20.7060   -17.9280 hc         1 I7M       0.103500
     85 H32        -15.7620    19.7300   -18.9010 hc         1 I7M       0.101500
     86 H33        -14.2450    19.1730   -19.5880 hc         1 I7M       0.101500
     87 H34        -16.1060    21.3700   -20.8110 h1         1 I7M       0.116000
     88 H35        -26.0860    20.9310   -16.7900 ha         1 I7M      -0.244333
     89 H36        -24.5440    20.3630   -16.0060 ha         1 I7M      -0.244333
     90 H37        -26.1700    20.9060   -16.8500 ha         1 I7M      -0.244333
     91 H38         -5.3730    20.6450    -7.3940 ha         1 I7M      -0.282333
     92 H39         -5.3640    20.6520    -7.3860 ha         1 I7M      -0.282333
     93 H40         -5.3700    20.6410    -7.3900 ha         1 I7M      -0.282333
     94 H41        -18.8830    15.1500   -20.4540 hn         1 I7M       0.141000
     95 H43        -20.0610    15.5770   -17.4240 hn         1 I7M       0.251000
     96 H44        -13.0940    23.5270   -14.1230 hn         1 I7M       0.244000
     97 H45        -16.7090    27.4470    -8.6900 hn         1 I7M       0.152000
     98 H47        -17.7840    26.8510   -12.5500 hn         1 I7M       0.236000
     99 H48        -19.9540    28.9920   -10.2920 hc         1 I7M       0.090500
    100 H49        -18.8700    26.3890    -9.0550 hc         1 I7M       0.115000
@<TRIPOS>BOND
     1     1     2 ar  
     2     1     6 ar  
     3     1    19 1   
     4     2    27 ar  
     5     2    54 1   
     6     3    18 1   
     7     4     5 ar  
     8     4    27 ar  
     9     4    55 1   
    10     5     6 ar  
    11     5    40 1   
    12     6    38 1   
    13     7     8 1   
    14     7    43 1   
    15     7    50 1   
    16     8     9 1   
    17     8    41 1   
    18     9    10 1   
    19     9    56 1   
    20    10    11 1   
    21    10    13 1   
    22    11    43 1   
    23    11    51 1   
    24    12    51 1   
    25    12    57 1   
    26    12    58 1   
    27    12    59 1   
    28    13    44 1   
    29    13    60 1   
    30    13    61 1   
    31    14    15 1   
    32    14    44 1   
    33    14    62 1   
    34    14    63 1   
    35    15    16 1   
    36    15    45 1   
    37    15    64 1   
    38    16    17 1   
    39    16    65 1   
    40    16    66 1   
    41    17    18 1   
    42    17    67 1   
    43    17    68 1   
    44    18    45 1   
    45    19    20 ar  
    46    19    24 ar  
    47    20    21 ar  
    48    20    69 1   
    49    21    22 ar  
    50    21    70 1   
    51    22    23 ar  
    52    22    71 1   
    53    23    24 ar  
    54    23    25 1   
    55    24    42 1   
    56    25    46 1   
    57    25    53 1   
    58    26    28 1   
    59    26    46 1   
    60    26    47 1   
    61    27    72 1   
    62    28    29 1   
    63    28    73 1   
    64    29    30 1   
    65    29    74 1   
    66    30    31 1   
    67    30    32 1   
    68    31    47 1   
    69    31    75 1   
    70    32    48 1   
    71    32    76 1   
    72    32    77 1   
    73    33    34 1   
    74    33    48 1   
    75    33    78 1   
    76    33    79 1   
    77    34    35 1   
    78    34    49 1   
    79    34    80 1   
    80    35    36 1   
    81    35    81 1   
    82    35    99 1   
    83    36    37 1   
    84    36    82 1   
    85    36   100 1   
    86    37    49 1   
    87    37    52 1   
    88    38    39 1   
    89    38    83 1   
    90    38    84 1   
    91    39    40 1   
    92    39    85 1   
    93    39    86 1   
    94    40    50 1   
    95    40    87 1   
    96    41    88 1   
    97    41    89 1   
    98    41    90 1   
    99    42    91 1   
   100    42    92 1   
   101    42    93 1   
   102    44    94 1   
   103    45    95 1   
   104    46    96 1   
   105    48    97 1   
   106    49    98 1   
@<TRIPOS>SUBSTRUCTURE
     1 I7M         1 TEMP              0 ****  ****    0 ROOT
