@<TRIPOS>MOLECULE
I7M
  100   106     1     0     0
SMALL
abcg2


@<TRIPOS>ATOM
      1 C1         -12.3150    22.8490   -18.9770 cp         1 I7M      -0.032000
      2 C2         -12.1270    23.4670   -20.2170 ca         1 I7M      -0.115000
      3 O3         -21.7320    14.2120   -15.1310 o          1 I7M      -0.356000
      4 C4         -14.1730    22.5040   -21.0740 ca         1 I7M      -0.116000
      5 C5         -14.3490    21.8710   -19.8530 ca         1 I7M      -0.101000
      6 C6         -13.4360    22.0350   -18.8130 ca         1 I7M      -0.078000
      7 C10        -16.9930    19.4130   -20.4420 c2         1 I7M       0.208000
      8 C11        -17.3310    18.6350   -21.5560 c2         1 I7M      -0.807000
      9 C12        -18.5340    17.9470   -21.4590 c2         1 I7M      -0.054000
     10 C13        -19.3480    18.0220   -20.3330 c2         1 I7M      -0.129000
     11 C14        -18.8860    18.8420   -19.2980 c2         1 I7M       0.153000
     12 C15        -19.1840    19.8080   -17.1380 c3         1 I7M      -0.054000
     13 C16        -20.6210    17.2330   -20.2280 c3         1 I7M      -0.018000
     14 C17        -21.6120    15.1610   -19.4160 c3         1 I7M      -0.104000
     15 C18        -21.3450    13.8750   -18.6410 c5         1 I7M       0.032000
     16 C19        -22.6100    13.0170   -18.4220 c5         1 I7M      -0.163000
     17 C20        -23.0810    13.3720   -17.0060 c5         1 I7M      -0.200000
     18 C21        -21.8510    13.9500   -16.3260 c2         1 I7M       0.305000
     19 C22        -11.3320    23.0320   -17.8760 cq         1 I7M      -0.077000
     20 C23        -10.0730    22.4410   -17.9890 ca         1 I7M      -0.047000
     21 C24         -9.1260    22.5730   -16.9820 ca         1 I7M      -0.243000
     22 C25         -9.4440    23.2910   -15.8410 ca         1 I7M      -0.014000
     23 C26        -10.7030    23.8750   -15.7060 ca         1 I7M      -0.173000
     24 C27        -11.6590    23.7810   -16.7310 ca         1 I7M      -0.709000
     25 C28        -10.9630    24.6190   -14.4300 c2         1 I7M       0.346000
     26 C29        -12.7090    24.7800   -12.6450 c2         1 I7M       0.133000
     27 C3         -13.0430    23.2990   -21.2530 ca         1 I7M      -0.136000
     28 C30        -12.1770    25.8250   -11.8890 c2         1 I7M      -0.200000
     29 C31        -12.9100    26.2680   -10.7970 c2         1 I7M      -0.070000
     30 C32        -14.1260    25.6780   -10.4730 c2         1 I7M      -0.179000
     31 C33        -14.5540    24.6370   -11.2930 c2         1 I7M      -0.005000
     32 C34        -14.9680    26.1400    -9.3100 c3         1 I7M      -0.021000
     33 C35        -16.3160    27.8180   -10.4660 c3         1 I7M      -0.100000
     34 C36        -17.6270    28.0620   -11.2130 c5         1 I7M       0.035000
     35 C37        -18.9020    27.9490   -10.3440 c5         1 I7M      -0.161000
     36 C38        -19.4470    26.5420   -10.6200 c5         1 I7M      -0.194000
     37 C39        -18.7930    26.1260   -11.9260 c2         1 I7M       0.315000
     38 C7         -13.8480    21.2200   -17.6120 c5         1 I7M      -0.117000
     39 C8         -14.8930    20.2420   -18.1900 c5         1 I7M      -0.174000
     40 C9         -15.4720    20.9660   -19.4170 c5         1 I7M       0.093000
     41 CL1        -16.4440    18.5680   -22.7650 cl         1 I7M       1.673000
     42 CL2        -12.9730    24.5210   -16.6600 cl         1 I7M       1.657000
     43 N1         -17.7460    19.5170   -19.3560 n2         1 I7M      -0.264000
     44 N2         -20.4070    15.9770   -19.4980 n7         1 I7M      -0.278000
     45 N3         -20.9110    14.1430   -17.2730 ns         1 I7M      -0.374000
     46 N4         -12.1040    24.2420   -13.7860 ns         1 I7M      -0.336000
     47 N5         -13.8740    24.1940   -12.3470 n2         1 I7M      -0.212000
     48 N6         -16.3040    26.5490    -9.7470 n7         1 I7M      -0.294000
     49 N7         -17.8690    27.0540   -12.2410 ns         1 I7M      -0.374000
     50 O1         -15.8230    20.0910   -20.5020 os         1 I7M      -0.228000
     51 O2         -19.6480    18.9480   -18.1860 os         1 I7M      -0.181000
     52 O4         -19.0550    25.1200   -12.5830 o          1 I7M      -0.364000
     53 O5         -10.1830    25.4630   -14.0000 o          1 I7M      -0.350000
     54 H1         -11.2550    24.0920   -20.3670 ha         1 I7M       0.141000
     55 H2         -14.8870    22.3680   -21.8770 ha         1 I7M       0.127000
     56 H3         -18.8530    17.3300   -22.2920 ha         1 I7M       0.119000
     57 H4         -19.9380    19.7440   -16.3580 h1         1 I7M       0.088333
     58 H5         -18.2180    19.4730   -16.7590 h1         1 I7M       0.088333
     59 H6         -19.0930    20.8360   -17.4900 h1         1 I7M       0.088333
     60 H7         -21.3780    17.8050   -19.6880 h1         1 I7M       0.081500
     61 H8         -21.0120    17.0520   -21.2400 h1         1 I7M       0.081500
     62 H9         -22.0100    14.8930   -20.4070 h1         1 I7M       0.079000
     63 H10        -22.3860    15.7400   -18.9020 h1         1 I7M       0.079000
     64 H11        -20.5690    13.3090   -19.1630 h1         1 I7M       0.095000
     65 H12        -23.3610    13.2160   -19.1840 hc         1 I7M       0.094500
     66 H13        -22.3470    11.9610   -18.4760 hc         1 I7M       0.094500
     67 H14        -23.8530    14.1460   -17.0040 hc         1 I7M       0.115000
     68 H15        -23.4660    12.5240   -16.4420 hc         1 I7M       0.115000
     69 H16         -9.8410    21.8710   -18.8800 ha         1 I7M       0.115000
     70 H17         -8.1520    22.1120   -17.0850 ha         1 I7M       0.121000
     71 H18         -8.7230    23.3990   -15.0400 ha         1 I7M       0.128000
     72 H19        -12.8730    23.7920   -22.2020 ha         1 I7M       0.129000
     73 H20        -11.2340    26.2690   -12.1580 ha         1 I7M       0.178000
     74 H21        -12.5300    27.0860   -10.1960 ha         1 I7M       0.132000
     75 H22        -15.4980    24.1430   -11.0900 h4         1 I7M       0.169000
     76 H23        -15.0960    25.3190    -8.6010 h1         1 I7M       0.078000
     77 H24        -14.4310    26.9410    -8.7820 h1         1 I7M       0.078000
     78 H25        -15.5060    27.8000   -11.1980 h1         1 I7M       0.079500
     79 H26        -16.1280    28.6790    -9.8060 h1         1 I7M       0.079500
     80 H27        -17.5610    29.0490   -11.6750 h1         1 I7M       0.099000
     81 H28        -18.6880    28.1270    -9.2910 hc         1 I7M       0.090500
     82 H29        -20.5320    26.5020   -10.7130 hc         1 I7M       0.115000
     83 H30        -14.3050    21.8610   -16.8520 hc         1 I7M       0.103500
     84 H31        -13.0080    20.7130   -17.1370 hc         1 I7M       0.103500
     85 H32        -15.6580    19.9560   -17.4730 hc         1 I7M       0.101500
     86 H33        -14.3970    19.3340   -18.5430 hc         1 I7M       0.101500
     87 H34        -16.3590    21.5450   -19.1490 h1         1 I7M       0.116000
     88 H35        -16.2900    19.5580   -23.2010 ha         1 I7M      -0.244333
     89 H36        -15.4550    18.1760   -22.5120 ha         1 I7M      -0.244333
     90 H37        -16.8840    17.9230   -23.5250 ha         1 I7M      -0.244333
     91 H38        -13.7590    23.9210   -16.1950 ha         1 I7M      -0.282333
     92 H39        -12.8810    25.4410   -16.0850 ha         1 I7M      -0.282333
     93 H40        -13.3160    24.7770   -17.6610 ha         1 I7M      -0.282333
     94 H41        -19.6820    15.4490   -19.9750 hn         1 I7M       0.141000
     95 H43        -20.0700    14.6650   -17.0780 hn         1 I7M       0.251000
     96 H44        -12.6410    23.4930   -14.2000 hn         1 I7M       0.244000
     97 H45        -16.9080    26.6050    -8.9360 hn         1 I7M       0.152000
     98 H47        -17.2240    26.9020   -13.0030 hn         1 I7M       0.236000
     99 H48        -19.6230    28.7000   -10.6650 hc         1 I7M       0.090500
    100 H49        -19.1530    25.8180    -9.8580 hc         1 I7M       0.115000
@<TRIPOS>BOND
     1     1     2 1   
     2     1     6 1   
     3     1    19 1   
     4     2    27 1   
     5     2    54 1   
     6     3    18 1   
     7     4     5 1   
     8     4    27 1   
     9     4    55 1   
    10     5     6 1   
    11     5    40 1   
    12     6    38 1   
    13     7     8 1   
    14     7    43 1   
    15     7    50 1   
    16     8     9 1   
    17     8    41 1   
    18     9    10 1   
    19     9    56 1   
    20    10    11 1   
    21    10    13 1   
    22    11    43 1   
    23    11    51 1   
    24    12    51 1   
    25    12    57 1   
    26    12    58 1   
    27    12    59 1   
    28    13    44 1   
    29    13    60 1   
    30    13    61 1   
    31    14    15 1   
    32    14    44 1   
    33    14    62 1   
    34    14    63 1   
    35    15    16 1   
    36    15    45 1   
    37    15    64 1   
    38    16    17 1   
    39    16    65 1   
    40    16    66 1   
    41    17    18 1   
    42    17    67 1   
    43    17    68 1   
    44    18    45 1   
    45    19    20 1   
    46    19    24 1   
    47    20    21 1   
    48    20    69 1   
    49    21    22 1   
    50    21    70 1   
    51    22    23 1   
    52    22    71 1   
    53    23    24 1   
    54    23    25 1   
    55    24    42 1   
    56    25    46 1   
    57    25    53 1   
    58    26    28 1   
    59    26    46 1   
    60    26    47 1   
    61    27    72 1   
    62    28    29 1   
    63    28    73 1   
    64    29    30 1   
    65    29    74 1   
    66    30    31 1   
    67    30    32 1   
    68    31    47 1   
    69    31    75 1   
    70    32    48 1   
    71    32    76 1   
    72    32    77 1   
    73    33    34 1   
    74    33    48 1   
    75    33    78 1   
    76    33    79 1   
    77    34    35 1   
    78    34    49 1   
    79    34    80 1   
    80    35    36 1   
    81    35    81 1   
    82    35    99 1   
    83    36    37 1   
    84    36    82 1   
    85    36   100 1   
    86    37    49 1   
    87    37    52 1   
    88    38    39 1   
    89    38    83 1   
    90    38    84 1   
    91    39    40 1   
    92    39    85 1   
    93    39    86 1   
    94    40    50 1   
    95    40    87 1   
    96    41    88 1   
    97    41    89 1   
    98    41    90 1   
    99    42    91 1   
   100    42    92 1   
   101    42    93 1   
   102    44    94 1   
   103    45    95 1   
   104    46    96 1   
   105    48    97 1   
   106    49    98 1   
@<TRIPOS>SUBSTRUCTURE
     1 I7M         1 TEMP              0 ****  ****    0 ROOT
