@<TRIPOS>MOLECULE
I7N
   58    61     1     0     0
SMALL
bcc


@<TRIPOS>ATOM
      1 C1          -8.2460   -59.4510    40.3580 ca         1 I7N       0.284100
      2 C2          -9.6530   -59.4660    40.1510 ca         1 I7N       0.187100
      3 C3          -8.5250   -61.1800    42.0390 ca         1 I7N      -0.014000
      4 C4          -9.8850   -61.1950    41.8350 ca         1 I7N      -0.143600
      5 C5         -10.4610   -60.3240    40.8890 ca         1 I7N      -0.160600
      6 C6         -11.9120   -60.2980    40.6770 c          1 I7N       0.653300
      7 C7         -12.7590   -61.1620    41.5230 ca         1 I7N      -0.054600
      8 O8         -11.4150   -64.4440    37.8960 o          1 I7N      -0.873300
      9 O10         -5.8990   -60.3040    43.1550 o          1 I7N      -0.653300
     10 C12        -12.1890   -62.0290    42.4590 ca         1 I7N      -0.111600
     11 C21         -9.6740   -63.0970    38.8060 c3         1 I7N      -0.174400
     12 O           -5.3930   -59.1850    40.9640 o          1 I7N      -0.653300
     13 N           -5.2850   -61.6700    41.1690 n3         1 I7N      -0.797500
     14 C23         -4.6220   -61.7640    39.8710 c6         1 I7N       0.256800
     15 C17         -5.1670   -62.9410    39.0710 c6         1 I7N      -0.178700
     16 C18         -6.5870   -62.6290    38.5970 c          1 I7N       0.666100
     17 O9          -6.9800   -61.4700    38.5350 o          1 I7N      -0.629100
     18 N1          -7.3410   -63.6710    38.2420 ns         1 I7N      -0.505900
     19 C19         -8.6950   -63.5400    37.7280 c3         1 I7N      -0.020300
     20 O7         -11.9840   -62.5520    38.9240 o          1 I7N      -0.873300
     21 C20         -8.7400   -62.6810    36.4330 c          1 I7N       0.939600
     22 O6          -7.7700   -62.7900    35.6600 o          1 I7N      -0.838800
     23 O5          -9.7700   -62.0040    36.2530 o          1 I7N      -0.838800
     24 C16         -5.0250   -64.2190    39.9010 c6         1 I7N      -0.058400
     25 C15         -5.7260   -64.0780    41.2450 c6         1 I7N      -0.096400
     26 C14         -5.1950   -62.8700    42.0010 c6         1 I7N       0.239800
     27 C           -7.7120   -60.3160    41.3060 ca         1 I7N      -0.353500
     28 C13        -10.7190   -62.1160    42.6300 c          1 I7N       0.619300
     29 O3         -10.2260   -62.9100    43.4070 o          1 I7N      -0.564100
     30 C11        -13.0100   -62.8240    43.2530 ca         1 I7N      -0.095000
     31 C10        -14.3870   -62.7530    43.1220 ca         1 I7N      -0.141000
     32 C9         -14.9530   -61.8880    42.1930 ca         1 I7N      -0.131000
     33 C8         -14.1430   -61.0970    41.3960 ca         1 I7N      -0.072000
     34 O4         -12.4170   -59.5170    39.8760 o          1 I7N      -0.560100
     35 O2         -10.1140   -58.6200    39.2410 oh         1 I7N      -0.481100
     36 O1          -7.5740   -58.5840    39.6210 oh         1 I7N      -0.455100
     37 H3          -8.0960   -61.8390    42.7810 ha         1 I7N       0.141000
     38 H18         -9.4340   -63.6420    39.7290 hc         1 I7N       0.003700
     39 H17         -9.5400   -62.0430    39.0380 hc         1 I7N       0.003700
     40 H20         -3.5530   -61.9170    40.0500 h1         1 I7N       0.052700
     41 H21         -4.7250   -60.8350    39.3210 h1         1 I7N       0.052700
     42 H14         -4.5480   -63.0340    38.1710 hc         1 I7N       0.067700
     43 H15         -6.9370   -64.5910    38.2610 hn         1 I7N       0.272500
     44 H           -8.9830   -64.5520    37.4290 h1         1 I7N       0.050700
     45 H13         -5.3810   -65.1020    39.3670 hc         1 I7N       0.028700
     46 H12         -3.9580   -64.3950    40.0690 hc         1 I7N       0.028700
     47 H11         -6.8070   -63.9770    41.1060 hc         1 I7N       0.057700
     48 H10         -5.5650   -64.9690    41.8550 hc         1 I7N       0.057700
     49 H9          -5.7360   -62.7300    42.9340 h1         1 I7N       0.041700
     50 H8          -4.1420   -63.0250    42.2590 h1         1 I7N       0.041700
     51 H7         -12.5700   -63.4950    43.9770 ha         1 I7N       0.137000
     52 H6         -15.0200   -63.3710    43.7450 ha         1 I7N       0.110000
     53 H5         -16.0280   -61.8310    42.0900 ha         1 I7N       0.114000
     54 H4         -14.5870   -60.4270    40.6730 ha         1 I7N       0.151000
     55 H2         -11.0940   -58.7270    39.2170 ho         1 I7N       0.477000
     56 H1          -6.6290   -58.6040    39.8710 ho         1 I7N       0.467000
     57 S           -5.9760   -60.3080    41.7060 sy         1 I7N       1.363200
     58 C22        -11.1490   -63.3800    38.4950 c          1 I7N       0.960600
@<TRIPOS>BOND
     1     1     2 ar  
     2     1    27 ar  
     3     1    36 1   
     4     2     5 ar  
     5     2    35 1   
     6     3     4 ar  
     7     3    27 ar  
     8     3    37 1   
     9     4     5 ar  
    10     4    28 1   
    11     5     6 1   
    12     6     7 1   
    13     6    34 2   
    14     7    10 ar  
    15     7    33 ar  
    16     8    58 1   
    17     9    57 2   
    18    10    28 1   
    19    10    30 ar  
    20    11    19 1   
    21    11    38 1   
    22    11    39 1   
    23    11    58 1   
    24    12    57 2   
    25    13    14 1   
    26    13    26 1   
    27    13    57 1   
    28    14    15 1   
    29    14    40 1   
    30    14    41 1   
    31    15    16 1   
    32    15    24 1   
    33    15    42 1   
    34    16    17 2   
    35    16    18 1   
    36    18    19 1   
    37    18    43 1   
    38    19    21 1   
    39    19    44 1   
    40    20    58 1   
    41    21    22 1   
    42    21    23 1   
    43    24    25 1   
    44    24    45 1   
    45    24    46 1   
    46    25    26 1   
    47    25    47 1   
    48    25    48 1   
    49    26    49 1   
    50    26    50 1   
    51    27    57 1   
    52    28    29 2   
    53    30    31 ar  
    54    30    51 1   
    55    31    32 ar  
    56    31    52 1   
    57    32    33 ar  
    58    32    53 1   
    59    33    54 1   
    60    35    55 1   
    61    36    56 1   
@<TRIPOS>SUBSTRUCTURE
     1 I7N         1 TEMP              0 ****  ****    0 ROOT
