@<TRIPOS>MOLECULE
I7N
   58    61     1     0     0
SMALL
No Charge or Current Charge


@<TRIPOS>ATOM
      1 C1          -8.3990   -59.2680    40.5410 ca         1 I7N       0.284100
      2 C2          -9.8150   -59.1950    40.4180 ca         1 I7N       0.187100
      3 C3          -8.6440   -61.1420    42.0730 ca         1 I7N       0.004000
      4 C4         -10.0490   -61.0920    41.9530 ca         1 I7N      -0.143600
      5 C5         -10.6490   -60.1110    41.1180 ca         1 I7N      -0.160600
      6 C6         -12.1550   -60.0640    40.9700 c          1 I7N       0.653300
      7 C7         -12.9830   -61.1000    41.6900 ca         1 I7N      -0.054600
      8 O8         -11.3680   -64.5590    38.5060 o          1 I7N      -0.768000
      9 O10         -5.7170   -60.5910    42.9800 o          1 I7N      -0.582500
     10 C12        -12.3760   -62.0740    42.5200 ca         1 I7N      -0.111600
     11 C21         -9.6510   -63.0000    39.0220 c3         1 I7N      -0.174400
     12 O           -5.3850   -59.3740    40.7660 o          1 I7N      -0.582500
     13 N           -5.7650   -61.9060    40.7910 n3         1 I7N      -0.797500
     14 C23         -4.8160   -61.8460    39.6430 c6         1 I7N       0.256800
     15 C17         -4.7470   -63.1660    38.8210 c6         1 I7N      -0.178700
     16 C18         -6.0270   -63.4360    38.0020 c          1 I7N       0.599100
     17 O9          -5.9670   -63.8750    36.8600 o          1 I7N      -0.629100
     18 N1          -7.2180   -63.0320    38.5600 ns         1 I7N      -0.438900
     19 C19         -8.5540   -63.1810    37.9430 c3         1 I7N      -0.020300
     20 O7         -11.7260   -62.5050    37.9760 o          1 I7N      -0.768000
     21 C20         -8.7340   -62.2090    36.7250 c          1 I7N       0.729000
     22 O6          -9.0760   -62.6890    35.6510 o          1 I7N      -0.733500
     23 O5          -8.4410   -61.0260    36.8590 o          1 I7N      -0.733500
     24 C16         -4.4390   -64.3410    39.7910 c6         1 I7N      -0.058400
     25 C15         -5.4120   -64.3750    40.9870 c6         1 I7N      -0.096400
     26 C14         -5.4260   -63.0180    41.7160 c6         1 I7N       0.239800
     27 C           -7.8180   -60.2450    41.3730 ca         1 I7N      -0.353500
     28 C13        -10.8800   -62.1060    42.7060 c          1 I7N       0.619300
     29 O3         -10.3550   -62.9290    43.4500 o          1 I7N      -0.564100
     30 C11        -13.1890   -63.0250    43.1820 ca         1 I7N      -0.077000
     31 C10        -14.5830   -63.0110    43.0230 ca         1 I7N      -0.123000
     32 C9         -15.1830   -62.0480    42.2020 ca         1 I7N      -0.113000
     33 C8         -14.3900   -61.0980    41.5400 ca         1 I7N      -0.054000
     34 O4         -12.6920   -59.1940    40.2870 o          1 I7N      -0.560100
     35 O2         -10.3690   -58.2270    39.6120 oh         1 I7N      -0.520100
     36 O1          -7.6210   -58.3700    39.8540 oh         1 I7N      -0.494100
     37 H3          -8.1860   -61.8970    42.7100 ha         1 I7N       0.123000
     38 H18         -9.3740   -63.6830    39.8360 hc         1 I7N       0.003700
     39 H17         -9.6220   -61.9430    39.3050 hc         1 I7N       0.003700
     40 H20         -3.8060   -61.6030    40.0070 h1         1 I7N       0.052700
     41 H21         -5.1010   -61.0440    38.9460 h1         1 I7N       0.052700
     42 H14         -3.9220   -63.1050    38.1000 hc         1 I7N       0.067700
     43 H15         -7.1470   -62.6130    39.4830 hn         1 I7N       0.272500
     44 H           -8.6230   -64.2060    37.5560 h1         1 I7N       0.050700
     45 H13         -4.4760   -65.2970    39.2500 hc         1 I7N       0.028700
     46 H12         -3.4110   -64.2420    40.1660 hc         1 I7N       0.028700
     47 H11         -6.4270   -64.6270    40.6520 hc         1 I7N       0.057700
     48 H10         -5.1140   -65.1650    41.6880 hc         1 I7N       0.057700
     49 H9          -6.1590   -63.0840    42.5320 h1         1 I7N       0.041700
     50 H8          -4.4400   -62.8470    42.1750 h1         1 I7N       0.041700
     51 H7         -12.7410   -63.7820    43.8230 ha         1 I7N       0.119000
     52 H6         -15.1960   -63.7480    43.5360 ha         1 I7N       0.092000
     53 H5         -16.2640   -62.0360    42.0780 ha         1 I7N       0.096000
     54 H4         -14.8750   -60.3580    40.9070 ha         1 I7N       0.133000
     55 H2         -11.3520   -58.3420    39.6490 ho         1 I7N       0.516000
     56 H1          -6.6750   -58.5860    40.0410 ho         1 I7N       0.506000
     57 S           -6.0480   -60.4120    41.5630 sy         1 I7N       1.221600
     58 C22        -11.0300   -63.3860    38.4570 c          1 I7N       0.750000
@<TRIPOS>BOND
     1     1     2 ar  
     2     1    27 ar  
     3     1    36 1   
     4     2     5 ar  
     5     2    35 1   
     6     3     4 ar  
     7     3    27 ar  
     8     3    37 1   
     9     4     5 ar  
    10     4    28 1   
    11     5     6 1   
    12     6     7 1   
    13     6    34 2   
    14     7    10 ar  
    15     7    33 ar  
    16     8    58 1   
    17     9    57 2   
    18    10    28 1   
    19    10    30 ar  
    20    11    19 1   
    21    11    38 1   
    22    11    39 1   
    23    11    58 1   
    24    12    57 2   
    25    13    14 1   
    26    13    26 1   
    27    13    57 1   
    28    14    15 1   
    29    14    40 1   
    30    14    41 1   
    31    15    16 1   
    32    15    24 1   
    33    15    42 1   
    34    16    17 2   
    35    16    18 1   
    36    18    19 1   
    37    18    43 1   
    38    19    21 1   
    39    19    44 1   
    40    20    58 1   
    41    21    22 1   
    42    21    23 1   
    43    24    25 1   
    44    24    45 1   
    45    24    46 1   
    46    25    26 1   
    47    25    47 1   
    48    25    48 1   
    49    26    49 1   
    50    26    50 1   
    51    27    57 1   
    52    28    29 2   
    53    30    31 ar  
    54    30    51 1   
    55    31    32 ar  
    56    31    52 1   
    57    32    33 ar  
    58    32    53 1   
    59    33    54 1   
    60    35    55 1   
    61    36    56 1   
@<TRIPOS>SUBSTRUCTURE
     1 I7N         1 TEMP              0 ****  ****    0 ROOT
