@<TRIPOS>MOLECULE
I7O
   21    22     1     0     0
SMALL
abcg2


@<TRIPOS>ATOM
      1 C10        -13.1240   -22.2980   -40.9420 c3         1 I7O      -0.095400
      2 C01        -14.3540   -24.8120   -42.2860 ca         1 I7O      -0.093000
      3 C02        -14.8660   -25.8000   -43.1040 ca         1 I7O      -0.129000
      4 C03        -14.8210   -25.6860   -44.5040 ca         1 I7O      -0.159000
      5 C04        -14.2650   -24.5770   -45.1090 ca         1 I7O      -0.080000
      6 C05        -13.7390   -23.5570   -44.3070 ca         1 I7O      -0.100800
      7 C06        -13.7850   -23.6950   -42.8990 ca         1 I7O      -0.034200
      8 N07        -13.1860   -22.5990   -42.3480 na         1 I7O      -0.020700
      9 C08        -12.7980   -21.7640   -43.3560 cc         1 I7O      -0.134100
     10 C09        -13.1030   -22.3060   -44.5720 cd         1 I7O      -0.290200
     11 C11        -14.4050   -21.6450   -40.3630 c          1 I7O       0.712000
     12 O12        -14.3960   -21.5230   -39.1240 o          1 I7O      -0.710000
     13 O13        -15.2810   -21.2940   -41.1670 o          1 I7O      -0.710000
     14 H1         -12.8900   -23.2110   -40.3910 h1         1 I7O       0.038200
     15 H2         -12.2820   -21.6220   -40.7780 h1         1 I7O       0.038200
     16 H5         -15.2310   -26.4820   -45.1120 ha         1 I7O       0.085000
     17 H6         -14.2350   -24.4970   -46.1890 ha         1 I7O       0.091000
     18 H7         -12.3120   -20.8290   -43.1230 h4         1 I7O       0.201000
     19 H8         -12.8930   -21.8700   -45.5350 ha         1 I7O       0.182000
     20 H3         -14.3960   -24.9090   -41.2090 ha         1 I7O       0.119000
     21 H4         -15.3130   -26.6800   -42.6570 ha         1 I7O       0.089000
@<TRIPOS>BOND
     1     1     8 1   
     2     1    11 1   
     3     1    14 1   
     4     1    15 1   
     5     2     3 ar  
     6     2     7 ar  
     7     2    20 1   
     8     3     4 ar  
     9     3    21 1   
    10     4     5 ar  
    11     4    16 1   
    12     5     6 ar  
    13     5    17 1   
    14     6     7 ar  
    15     6    10 1   
    16     7     8 1   
    17     8     9 1   
    18     9    10 2   
    19     9    18 1   
    20    10    19 1   
    21    11    12 1   
    22    11    13 1   
@<TRIPOS>SUBSTRUCTURE
     1 I7O         1 TEMP              0 ****  ****    0 ROOT
