@<TRIPOS>MOLECULE
I7O
   21    22     1     0     0
SMALL
No Charge or Current Charge


@<TRIPOS>ATOM
      1 C10        -13.1110   -22.2410   -40.9590 c3         1 I7O      -0.095400
      2 C01        -14.3480   -24.7710   -42.2530 ca         1 I7O      -0.093000
      3 C02        -14.8520   -25.8300   -43.0410 ca         1 I7O      -0.129000
      4 C03        -14.7970   -25.7640   -44.4540 ca         1 I7O      -0.159000
      5 C04        -14.2380   -24.6390   -45.0960 ca         1 I7O      -0.080000
      6 C05        -13.7480   -23.6090   -44.2830 ca         1 I7O      -0.100800
      7 C06        -13.7950   -23.6630   -42.9160 ca         1 I7O      -0.034200
      8 N07        -13.2340   -22.4950   -42.4050 na         1 I7O      -0.020700
      9 C08        -12.8060   -21.6520   -43.4510 cc         1 I7O      -0.134100
     10 C09        -13.1290   -22.3500   -44.6070 cd         1 I7O      -0.290200
     11 C11        -14.3980   -21.6760   -40.3370 c          1 I7O       0.712000
     12 O12        -15.1020   -22.4290   -39.6790 o          1 I7O      -0.710000
     13 O13        -14.6450   -20.4890   -40.4990 o          1 I7O      -0.710000
     14 H1         -12.8410   -23.1720   -40.4460 h1         1 I7O       0.038200
     15 H2         -12.3020   -21.5190   -40.7920 h1         1 I7O       0.038200
     16 H5         -15.1890   -26.5860   -45.0500 ha         1 I7O       0.085000
     17 H6         -14.1890   -24.5730   -46.1800 ha         1 I7O       0.091000
     18 H7         -12.3370   -20.6870   -43.2880 h4         1 I7O       0.201000
     19 H8         -12.9370   -21.9890   -45.6150 ha         1 I7O       0.182000
     20 H3         -14.3910   -24.8190   -41.1680 ha         1 I7O       0.119000
     21 H4         -15.2870   -26.7020   -42.5570 ha         1 I7O       0.089000
@<TRIPOS>BOND
     1     1     8 1   
     2     1    11 1   
     3     1    14 1   
     4     1    15 1   
     5     2     3 ar  
     6     2     7 ar  
     7     2    20 1   
     8     3     4 ar  
     9     3    21 1   
    10     4     5 ar  
    11     4    16 1   
    12     5     6 ar  
    13     5    17 1   
    14     6     7 ar  
    15     6    10 1   
    16     7     8 1   
    17     8     9 1   
    18     9    10 2   
    19     9    18 1   
    20    10    19 1   
    21    11    12 1   
    22    11    13 1   
@<TRIPOS>SUBSTRUCTURE
     1 I7O         1 TEMP              0 ****  ****    0 ROOT
