@<TRIPOS>MOLECULE
I7R
   62    65     1     0     0
SMALL
No Charge or Current Charge


@<TRIPOS>ATOM
      1 C2          50.1250   101.2700    79.0190 c6         1 I7R       0.158300
      2 C3          51.1530   100.6430    78.0190 c6         1 I7R       0.201800
      3 C5          48.0210   100.9570    80.2810 c3         1 I7R       0.153100
      4 N4          53.8600   106.1700    73.6750 n2         1 I7R      -0.250700
      5 C6          50.8500   100.5280    75.5050 ce         1 I7R       0.664800
      6 C7          51.3800   101.9070    75.2430 ca         1 I7R      -0.133900
      7 C12         50.7810   103.0320    75.8450 ca         1 I7R      -0.084000
      8 C8          52.4170   102.1200    74.3090 ca         1 I7R      -0.084000
      9 C9          52.8820   103.4170    74.0330 ca         1 I7R      -0.098000
     10 C10         52.3010   104.5410    74.6600 ca         1 I7R      -0.092900
     11 C11         51.2430   104.3300    75.5700 ca         1 I7R      -0.098000
     12 C13         52.8040   105.9260    74.3790 ce         1 I7R       0.333900
     13 C14         52.8020   108.2060    73.8810 c5         1 I7R       0.120300
     14 C15         52.1870   107.2100    74.8990 c5         1 I7R      -0.167700
     15 C16         53.0690   109.6350    74.4390 c3         1 I7R       0.174800
     16 C17         53.3480   112.0640    74.0600 c6         1 I7R       0.163300
     17 C18         53.5230   113.2100    73.0110 c6         1 I7R       0.166300
     18 C1          48.3150    99.9500    78.0400 c6         1 I7R       0.158300
     19 C19         54.6460   111.6520    71.4980 c6         1 I7R       0.166300
     20 C20         54.4610   110.5020    72.5420 c6         1 I7R       0.163300
     21 C21         54.9080   114.1140    71.1470 c3         1 I7R       0.021800
     22 C22         56.1840   114.0890    70.2280 c          1 I7R       0.721000
     23 C4          49.3060    99.2590    77.0500 c6         1 I7R       0.201800
     24 N1          48.9720   100.3680    79.3140 n3         1 I7R      -0.715600
     25 N2          50.5240   100.0880    76.7760 nh         1 I7R      -0.782600
     26 N3          50.8800    99.6290    74.5950 n2         1 I7R      -0.815100
     27 N5          53.2720   110.7110    73.4280 n3         1 I7R      -0.723600
     28 N6          54.7150   113.0020    72.1360 n3         1 I7R      -0.677600
     29 O1          54.0290   107.5520    73.4860 os         1 I7R      -0.263000
     30 O2          57.2330   114.5420    70.6710 o          1 I7R      -0.729000
     31 O3          56.0800   113.6340    69.0960 o          1 I7R      -0.729000
     32 H3          50.6560   101.5200    79.9490 h1         1 I7R       0.039450
     33 H4          49.7580   102.2190    78.6050 h1         1 I7R       0.039450
     34 H5          51.6790    99.8300    78.5400 h1         1 I7R       0.047950
     35 H6          51.9180   101.3950    77.7760 h1         1 I7R       0.047950
     36 H10         48.5300   101.2070    81.2210 h1         1 I7R       0.031033
     37 H9          47.5690   101.8740    79.8790 h1         1 I7R       0.031033
     38 H11         47.2140   100.2480    80.5110 h1         1 I7R       0.031033
     39 H16         49.9400   102.9020    76.5200 ha         1 I7R       0.124000
     40 H13         52.8790   101.2730    73.8040 ha         1 I7R       0.124000
     41 H14         53.6950   103.5420    73.3200 ha         1 I7R       0.126500
     42 H15         50.7660   105.1710    76.0670 ha         1 I7R       0.126500
     43 H17         52.1540   108.2830    72.9970 h1         1 I7R       0.081700
     44 H18         52.5100   107.4150    75.9260 hc         1 I7R       0.067700
     45 H19         51.0920   107.2050    74.8690 hc         1 I7R       0.067700
     46 H21         52.2000   109.9010    75.0560 h1         1 I7R       0.030200
     47 H20         53.9310   109.5860    75.1180 h1         1 I7R       0.030200
     48 H23         52.4360   112.2620    74.6420 h1         1 I7R       0.031200
     49 H22         54.1920   112.1040    74.7640 h1         1 I7R       0.031200
     50 H24         53.6080   114.1660    73.5470 h1         1 I7R       0.033200
     51 H25         52.6110   113.2660    72.3980 h1         1 I7R       0.033200
     52 H1          47.8760   100.8260    77.5380 h1         1 I7R       0.039450
     53 H2          47.4900    99.2540    78.2480 h1         1 I7R       0.039450
     54 H26         55.5620   111.4520    70.9230 h1         1 I7R       0.033200
     55 H27         53.8070   111.6150    70.7870 h1         1 I7R       0.033200
     56 H28         54.3660   109.5600    71.9840 h1         1 I7R       0.031200
     57 H29         55.3760   110.4280    73.1490 h1         1 I7R       0.031200
     58 H30         54.9310   115.0690    71.6880 h1         1 I7R       0.011200
     59 H31         54.0330   114.1590    70.4840 h1         1 I7R       0.011200
     60 H7          48.7640    99.0380    76.1190 h1         1 I7R       0.047950
     61 H8          49.6120    98.2930    77.4780 h1         1 I7R       0.047950
     62 H12         50.6860    98.7440    75.0740 hn         1 I7R       0.372400
@<TRIPOS>BOND
     1     1     2 1   
     2     1    24 1   
     3     1    32 1   
     4     1    33 1   
     5     2    25 1   
     6     2    34 1   
     7     2    35 1   
     8     3    24 1   
     9     3    36 1   
    10     3    37 1   
    11     3    38 1   
    12     4    12 2   
    13     4    29 1   
    14     5     6 1   
    15     5    25 1   
    16     5    26 2   
    17     6     7 ar  
    18     6     8 ar  
    19     7    11 ar  
    20     7    39 1   
    21     8     9 ar  
    22     8    40 1   
    23     9    10 ar  
    24     9    41 1   
    25    10    11 ar  
    26    10    12 1   
    27    11    42 1   
    28    12    14 1   
    29    13    14 1   
    30    13    15 1   
    31    13    29 1   
    32    13    43 1   
    33    14    44 1   
    34    14    45 1   
    35    15    27 1   
    36    15    46 1   
    37    15    47 1   
    38    16    17 1   
    39    16    27 1   
    40    16    48 1   
    41    16    49 1   
    42    17    28 1   
    43    17    50 1   
    44    17    51 1   
    45    18    23 1   
    46    18    24 1   
    47    18    52 1   
    48    18    53 1   
    49    19    20 1   
    50    19    28 1   
    51    19    54 1   
    52    19    55 1   
    53    20    27 1   
    54    20    56 1   
    55    20    57 1   
    56    21    22 1   
    57    21    28 1   
    58    21    58 1   
    59    21    59 1   
    60    22    30 1   
    61    22    31 1   
    62    23    25 1   
    63    23    60 1   
    64    23    61 1   
    65    26    62 1   
@<TRIPOS>SUBSTRUCTURE
     1 I7R         1 TEMP              0 ****  ****    0 ROOT
