@<TRIPOS>MOLECULE
I7R
   62    65     1     0     0
SMALL
bcc


@<TRIPOS>ATOM
      1 C2          50.0550   101.5040    79.1790 c6         1 I7R       0.158300
      2 C3          50.9700   101.2960    77.9910 c6         1 I7R       0.201800
      3 C5          48.6570   100.3990    80.7780 c3         1 I7R       0.153100
      4 N4          53.3940   106.1920    73.1490 n2         1 I7R      -0.349200
      5 C6          50.7310   100.7800    75.6070 ce         1 I7R       0.664800
      6 C7          51.1580   102.1440    75.1890 ca         1 I7R      -0.133900
      7 C12         50.4080   103.2700    75.5140 ca         1 I7R      -0.102000
      8 C8          52.2950   102.3000    74.3980 ca         1 I7R      -0.102000
      9 C9          52.6810   103.5500    73.9550 ca         1 I7R      -0.116000
     10 C10         51.9280   104.6830    74.2770 ca         1 I7R      -0.092900
     11 C11         50.7850   104.5240    75.0580 ca         1 I7R      -0.116000
     12 C13         52.3220   106.0110    73.8110 ce         1 I7R       0.333900
     13 C14         52.3830   108.2630    73.2260 c5         1 I7R       0.097100
     14 C15         51.5810   107.2840    74.0800 c5         1 I7R      -0.167700
     15 C16         52.7610   109.5330    73.9680 c3         1 I7R       0.174800
     16 C17         53.2110   111.8730    73.8570 c6         1 I7R       0.163300
     17 C18         53.6070   113.0280    72.9590 c6         1 I7R       0.166300
     18 C1          48.7300    99.6570    78.5040 c6         1 I7R       0.158300
     19 C19         54.9300   111.5690    71.6610 c6         1 I7R       0.166300
     20 C20         54.5360   110.4040    72.5490 c6         1 I7R       0.163300
     21 C21         55.3260   113.9310    71.5630 c3         1 I7R       0.021800
     22 C22         56.8150   113.9730    71.1520 c          1 I7R       0.931600
     23 C4          49.6130    99.4260    77.2920 c6         1 I7R       0.201800
     24 N1          49.4740   100.2460    79.5970 n3         1 I7R      -0.715600
     25 N2          50.2460   100.6690    76.8910 nh         1 I7R      -0.782600
     26 N3          50.7780    99.8640    74.7190 n2         1 I7R      -0.815100
     27 N5          53.2200   110.6180    73.1270 n3         1 I7R      -0.723600
     28 N6          54.9240   112.8180    72.3930 n3         1 I7R      -0.677600
     29 O1          53.5550   107.5060    72.8400 os         1 I7R      -0.141300
     30 O2          57.6200   113.2450    71.7600 o          1 I7R      -0.834300
     31 O3          57.0750   114.7880    70.2430 o          1 I7R      -0.834300
     32 H3          50.6410   101.9210    80.0020 h1         1 I7R       0.039450
     33 H4          49.2800   102.2470    78.9210 h1         1 I7R       0.039450
     34 H5          51.8140   100.6610    78.2930 h1         1 I7R       0.047950
     35 H6          51.3830   102.2520    77.6780 h1         1 I7R       0.047950
     36 H10         49.2560   100.7980    81.5970 h1         1 I7R       0.031033
     37 H9          47.8000   101.0740    80.6280 h1         1 I7R       0.031033
     38 H11         48.2660    99.4290    81.0910 h1         1 I7R       0.031033
     39 H16         49.5160   103.1710    76.1200 ha         1 I7R       0.142000
     40 H13         52.8860   101.4330    74.1360 ha         1 I7R       0.142000
     41 H14         53.5730   103.6480    73.3500 ha         1 I7R       0.144500
     42 H15         50.1730   105.3790    75.3180 ha         1 I7R       0.144500
     43 H17         51.8410   108.5250    72.3120 h1         1 I7R       0.081700
     44 H18         51.6110   107.5260    75.1480 hc         1 I7R       0.067700
     45 H19         50.5320   107.2370    73.7880 hc         1 I7R       0.067700
     46 H21         51.8520   109.8750    74.4700 h1         1 I7R       0.030200
     47 H20         53.4790   109.2800    74.7680 h1         1 I7R       0.030200
     48 H23         52.2050   112.0550    74.2440 h1         1 I7R       0.031200
     49 H22         53.8910   111.8430    74.7260 h1         1 I7R       0.031200
     50 H24         53.6110   113.9480    73.5490 h1         1 I7R       0.033200
     51 H25         52.8390   113.1510    72.1740 h1         1 I7R       0.033200
     52 H1          47.8750   100.2900    78.2050 h1         1 I7R       0.039450
     53 H2          48.3200    98.6960    78.8230 h1         1 I7R       0.039450
     54 H26         55.9300   111.3830    71.2690 h1         1 I7R       0.033200
     55 H27         54.2420   111.6070    70.7960 h1         1 I7R       0.033200
     56 H28         54.5350   109.5010    71.9410 h1         1 I7R       0.031200
     57 H29         55.3000   110.2690    73.3340 h1         1 I7R       0.031200
     58 H30         55.1280   114.8550    72.1200 h1         1 I7R       0.011200
     59 H31         54.7070   114.0000    70.6510 h1         1 I7R       0.011200
     60 H7          48.9860    99.0570    76.4790 h1         1 I7R       0.047950
     61 H8          50.3610    98.6530    77.5130 h1         1 I7R       0.047950
     62 H12         50.5080    98.9550    75.0820 hn         1 I7R       0.372400
@<TRIPOS>BOND
     1     1     2 1   
     2     1    24 1   
     3     1    32 1   
     4     1    33 1   
     5     2    25 1   
     6     2    34 1   
     7     2    35 1   
     8     3    24 1   
     9     3    36 1   
    10     3    37 1   
    11     3    38 1   
    12     4    12 2   
    13     4    29 1   
    14     5     6 1   
    15     5    25 1   
    16     5    26 2   
    17     6     7 ar  
    18     6     8 ar  
    19     7    11 ar  
    20     7    39 1   
    21     8     9 ar  
    22     8    40 1   
    23     9    10 ar  
    24     9    41 1   
    25    10    11 ar  
    26    10    12 1   
    27    11    42 1   
    28    12    14 1   
    29    13    14 1   
    30    13    15 1   
    31    13    29 1   
    32    13    43 1   
    33    14    44 1   
    34    14    45 1   
    35    15    27 1   
    36    15    46 1   
    37    15    47 1   
    38    16    17 1   
    39    16    27 1   
    40    16    48 1   
    41    16    49 1   
    42    17    28 1   
    43    17    50 1   
    44    17    51 1   
    45    18    23 1   
    46    18    24 1   
    47    18    52 1   
    48    18    53 1   
    49    19    20 1   
    50    19    28 1   
    51    19    54 1   
    52    19    55 1   
    53    20    27 1   
    54    20    56 1   
    55    20    57 1   
    56    21    22 1   
    57    21    28 1   
    58    21    58 1   
    59    21    59 1   
    60    22    30 1   
    61    22    31 1   
    62    23    25 1   
    63    23    60 1   
    64    23    61 1   
    65    26    62 1   
@<TRIPOS>SUBSTRUCTURE
     1 I7R         1 TEMP              0 ****  ****    0 ROOT
