@<TRIPOS>MOLECULE
I7S
   18    18     1     0     0
SMALL
No Charge or Current Charge


@<TRIPOS>ATOM
      1 C6         -10.2730   -33.8510   -19.9640 c          1 I7S       0.647500
      2 C1          -6.7860   -35.2110   -19.5360 ca         1 I7S       0.283300
      3 C7          -8.6870   -31.4020   -19.4280 c          1 I7S       0.737600
      4 C4          -7.9960   -32.7270   -19.5070 ca         1 I7S      -0.138600
      5 C2          -5.9920   -34.0680   -19.3510 ca         1 I7S      -0.224000
      6 C3          -6.6000   -32.8060   -19.3320 ca         1 I7S      -0.098000
      7 O3          -9.4930   -31.2320   -18.5240 o          1 I7S      -0.734000
      8 O2          -8.3030   -30.5080   -20.1680 o          1 I7S      -0.734000
      9 C5          -8.7400   -33.9140   -19.7140 ca         1 I7S       0.330500
     10 O1         -10.7050   -33.0810   -20.8190 o          1 I7S      -0.727000
     11 O          -11.0110   -34.6360   -19.3710 o          1 I7S      -0.727000
     12 N           -8.1220   -35.1440   -19.7150 nb         1 I7S      -0.690000
     13 C           -6.1720   -36.6020   -19.5550 c3         1 I7S      -0.116400
     14 H1          -4.9180   -34.1590   -19.2140 ha         1 I7S       0.061000
     15 H2          -6.0060   -31.9090   -19.1710 ha         1 I7S       0.094000
     16 H5          -6.2180   -37.0380   -20.5610 hc         1 I7S       0.012033
     17 H6          -5.1180   -36.5800   -19.2530 hc         1 I7S       0.012033
     18 H7          -6.6960   -37.2790   -18.8700 hc         1 I7S       0.012033
@<TRIPOS>BOND
     1     1     9 1   
     2     1    10 1   
     3     1    11 1   
     4     2     5 ar  
     5     2    12 ar  
     6     2    13 1   
     7     3     4 1   
     8     3     7 1   
     9     3     8 1   
    10     4     6 ar  
    11     4     9 ar  
    12     5     6 ar  
    13     5    14 1   
    14     6    15 1   
    15     9    12 ar  
    16    13    16 1   
    17    13    17 1   
    18    13    18 1   
@<TRIPOS>SUBSTRUCTURE
     1 I7S         1 TEMP              0 ****  ****    0 ROOT
