@<TRIPOS>MOLECULE
I7S
   18    18     1     0     0
SMALL
abcg2


@<TRIPOS>ATOM
      1 C6         -10.1900   -33.8910   -20.1070 c          1 I7S       0.647500
      2 C1          -6.8120   -35.1980   -19.5580 ca         1 I7S       0.283300
      3 C7          -8.6890   -31.3720   -19.3310 c          1 I7S       0.737600
      4 C4          -8.0110   -32.7250   -19.4650 ca         1 I7S      -0.138600
      5 C2          -6.0310   -34.0780   -19.3000 ca         1 I7S      -0.224000
      6 C3          -6.6410   -32.8350   -19.2650 ca         1 I7S      -0.098000
      7 O3          -9.7090   -31.3400   -18.6180 o          1 I7S      -0.734000
      8 O2          -8.1300   -30.4160   -19.9040 o          1 I7S      -0.734000
      9 C5          -8.7110   -33.9020   -19.7400 ca         1 I7S       0.330500
     10 O1         -10.4810   -33.2120   -21.1100 o          1 I7S      -0.727000
     11 O          -10.9450   -34.5880   -19.4060 o          1 I7S      -0.727000
     12 N           -8.1200   -35.0970   -19.7840 nb         1 I7S      -0.690000
     13 C           -6.2070   -36.5720   -19.5720 c3         1 I7S      -0.116400
     14 H1          -4.9660   -34.1790   -19.1280 ha         1 I7S       0.061000
     15 H2          -6.0500   -31.9490   -19.0670 ha         1 I7S       0.094000
     16 H5          -6.8700   -37.2850   -20.0570 hc         1 I7S       0.012033
     17 H6          -5.2460   -36.5820   -20.0870 hc         1 I7S       0.012033
     18 H7          -6.0260   -36.9260   -18.5540 hc         1 I7S       0.012033
@<TRIPOS>BOND
     1     1     9 1   
     2     1    10 1   
     3     1    11 1   
     4     2     5 ar  
     5     2    12 ar  
     6     2    13 1   
     7     3     4 1   
     8     3     7 1   
     9     3     8 1   
    10     4     6 ar  
    11     4     9 ar  
    12     5     6 ar  
    13     5    14 1   
    14     6    15 1   
    15     9    12 ar  
    16    13    16 1   
    17    13    17 1   
    18    13    18 1   
@<TRIPOS>SUBSTRUCTURE
     1 I7S         1 TEMP              0 ****  ****    0 ROOT
