@<TRIPOS>MOLECULE
I7T
   52    55     1     0     0
SMALL
No Charge or Current Charge


@<TRIPOS>ATOM
      1 O12         -1.7400     3.3780    -0.0950 oh         1 I7T      -0.470100
      2 C12         -1.3690     2.1060    -0.2900 c2         1 I7T       0.218900
      3 C1B         -0.0830     1.6820    -0.4130 ce         1 I7T      -0.307400
      4 C11          1.1110     2.5780    -0.2540 c          1 I7T       0.629900
      5 O11          1.0200     3.7970    -0.3490 o          1 I7T      -0.571100
      6 C1A          2.4500     1.9610     0.0930 ca         1 I7T      -0.291600
      7 C10          3.6100     2.7630     0.2180 ca         1 I7T       0.239100
      8 O10          3.5660     4.1060     0.0140 oh         1 I7T      -0.551100
      9 C9           4.8410     2.1950     0.5620 ca         1 I7T      -0.186000
     10 C8           4.9420     0.8190     0.8030 ca         1 I7T      -0.013000
     11 C7           3.8080     0.0030     0.6890 ca         1 I7T       0.129000
     12 C61          2.5590     0.5620     0.3160 ca         1 I7T       0.050700
     13 C6           1.3240    -0.3360     0.1920 c6         1 I7T      -0.042100
     14 C5          -0.9860    -0.7140    -0.8040 c6         1 I7T      -0.074400
     15 C1C         -2.6060     1.2170    -0.4820 c6         1 I7T       0.085200
     16 C1          -3.1950     0.7620     0.9130 c          1 I7T       0.588300
     17 O1          -3.2720     1.5750     1.8260 o          1 I7T      -0.482100
     18 O1C         -3.6210     1.9960    -1.1720 oh         1 I7T      -0.696000
     19 C41         -2.2480     0.0000    -1.3760 c6         1 I7T      -0.079700
     20 C4          -3.4800    -0.9470    -1.4670 c6         1 I7T       0.205700
     21 N4          -4.6350    -0.2660    -2.1740 n3         1 I7T      -0.734600
     22 C42         -4.3940    -0.0480    -3.6280 c3         1 I7T       0.139600
     23 C43         -5.9470    -0.9340    -1.9670 c3         1 I7T       0.139600
     24 C3          -3.8060    -1.4380    -0.0390 c2         1 I7T       0.196900
     25 O3          -4.2840    -2.6980    -0.0380 oh         1 I7T      -0.527100
     26 C2          -3.6430    -0.6710     1.0770 ce         1 I7T      -0.396400
     27 C21         -3.9090    -1.1690     2.4620 c          1 I7T       0.613300
     28 C5A          0.2500     0.2250    -0.7620 c6         1 I7T       0.012500
     29 O21         -4.2230    -0.4650     3.4010 o          1 I7T      -0.537100
     30 I7           4.0590    -2.1190     1.1360 i          1 I7T      -0.328000
     31 N21         -3.7640    -2.4950     2.6740 nt         1 I7T      -0.615000
     32 H12         -2.6900     3.3620    -0.3660 ho         1 I7T       0.502000
     33 H5A          0.6810     0.2370    -1.7740 hc         1 I7T       0.058700
     34 H10          2.6130     4.3170    -0.1670 ho         1 I7T       0.527000
     35 H9           5.7220     2.8260     0.6540 ha         1 I7T       0.136000
     36 H8           5.8960     0.3840     1.0860 ha         1 I7T       0.127000
     37 H61C         1.6050    -1.3310    -0.1740 hc         1 I7T       0.065700
     38 H62C         0.8970    -0.4810     1.1940 hc         1 I7T       0.065700
     39 H51C        -1.1790    -1.0970     0.2060 hc         1 I7T       0.050700
     40 H52C        -0.7490    -1.5970    -1.4140 hc         1 I7T       0.050700
     41 H41         -1.9760     0.3560    -2.3780 hc         1 I7T       0.084700
     42 H1C         -4.1920     1.2980    -1.6170 ho         1 I7T       0.517000
     43 H4          -3.1790    -1.8290    -2.0550 h1         1 I7T       0.071700
     44 H431        -6.2280    -0.9390    -0.9060 h1         1 I7T       0.047867
     45 H432        -6.7430    -0.4060    -2.5080 h1         1 I7T       0.047867
     46 H433        -5.9210    -1.9710    -2.3270 h1         1 I7T       0.047867
     47 H421        -4.2170    -1.0020    -4.1430 h1         1 I7T       0.047867
     48 H422        -5.2630     0.4330    -4.0980 h1         1 I7T       0.047867
     49 H423        -3.5330     0.6060    -3.8110 h1         1 I7T       0.047867
     50 H3          -4.7340    -2.8450     0.8200 ho         1 I7T       0.504000
     51 H211        -3.2940    -3.0670     1.9860 hn         1 I7T       0.305000
     52 H212        -3.9070    -2.8520     3.6080 hn         1 I7T       0.305000
@<TRIPOS>BOND
     1     1     2 1   
     2     1    32 1   
     3     2     3 2   
     4     2    15 1   
     5     3     4 1   
     6     3    28 1   
     7     4     5 2   
     8     4     6 1   
     9     6     7 ar  
    10     6    12 ar  
    11     7     8 1   
    12     7     9 ar  
    13     8    34 1   
    14     9    10 ar  
    15     9    35 1   
    16    10    11 ar  
    17    10    36 1   
    18    11    12 ar  
    19    11    30 1   
    20    12    13 1   
    21    13    28 1   
    22    13    37 1   
    23    13    38 1   
    24    14    19 1   
    25    14    28 1   
    26    14    39 1   
    27    14    40 1   
    28    15    16 1   
    29    15    18 1   
    30    15    19 1   
    31    16    17 2   
    32    16    26 1   
    33    18    42 1   
    34    19    20 1   
    35    19    41 1   
    36    20    21 1   
    37    20    24 1   
    38    20    43 1   
    39    21    22 1   
    40    21    23 1   
    41    22    47 1   
    42    22    48 1   
    43    22    49 1   
    44    23    44 1   
    45    23    45 1   
    46    23    46 1   
    47    24    25 1   
    48    24    26 2   
    49    25    50 1   
    50    26    27 1   
    51    27    29 2   
    52    27    31 1   
    53    28    33 1   
    54    31    51 1   
    55    31    52 1   
@<TRIPOS>SUBSTRUCTURE
     1 I7T         1 TEMP              0 ****  ****    0 ROOT
