@<TRIPOS>MOLECULE
I7T
   52    55     1     0     0
SMALL
abcg2


@<TRIPOS>ATOM
      1 O12         -1.6960     3.2890     0.1300 oh         1 I7T      -0.470100
      2 C12         -1.3710     2.0440    -0.1640 c2         1 I7T       0.218900
      3 C1B         -0.0890     1.6150    -0.2590 ce         1 I7T      -0.307400
      4 C11          1.0380     2.5120    -0.0610 c          1 I7T       0.629900
      5 O11          0.9100     3.7420    -0.0080 o          1 I7T      -0.571100
      6 C1A          2.3880     1.9230     0.0760 ca         1 I7T      -0.291600
      7 C10          3.5000     2.7940     0.1270 ca         1 I7T       0.239100
      8 O10          3.3750     4.1110     0.0340 oh         1 I7T      -0.551100
      9 C9           4.7820     2.2670     0.2820 ca         1 I7T      -0.186000
     10 C8           4.9540     0.9100     0.4290 ca         1 I7T      -0.013000
     11 C7           3.8570     0.0500     0.4090 ca         1 I7T       0.129000
     12 C61          2.5700     0.5310     0.2160 ca         1 I7T       0.050700
     13 C6           1.3630    -0.3560     0.1810 c6         1 I7T      -0.042100
     14 C5          -0.9340    -0.7340    -0.7240 c6         1 I7T      -0.074400
     15 C1C         -2.5490     1.1120    -0.3720 c6         1 I7T       0.085200
     16 C1          -3.0360     0.5850     0.9920 c          1 I7T       0.588300
     17 O1          -2.8410     1.2220     2.0070 o          1 I7T      -0.482100
     18 O1C         -3.6120     1.8870    -0.8710 oh         1 I7T      -0.696000
     19 C41         -2.1670    -0.0430    -1.2870 c6         1 I7T      -0.079700
     20 C4          -3.3640    -0.9810    -1.4620 c6         1 I7T       0.205700
     21 N4          -4.4360    -0.2650    -2.1930 n3         1 I7T      -0.734600
     22 C42         -4.1700    -0.2770    -3.6270 c3         1 I7T       0.139600
     23 C43         -5.8010    -0.7140    -1.9450 c3         1 I7T       0.139600
     24 C3          -3.8440    -1.4520    -0.1150 c2         1 I7T       0.196900
     25 O3          -4.3720    -2.6600    -0.1600 oh         1 I7T      -0.527100
     26 C2          -3.7600    -0.6780     0.9990 ce         1 I7T      -0.396400
     27 C21         -4.4120    -1.0910     2.2790 c          1 I7T       0.613300
     28 C5A          0.2570     0.2130    -0.6940 c6         1 I7T       0.012500
     29 O21         -5.2020    -0.3720     2.8560 o          1 I7T      -0.537100
     30 I7           4.2540    -2.0000     0.7220 i          1 I7T      -0.328000
     31 N21         -4.1270    -2.3590     2.6720 nt         1 I7T      -0.615000
     32 H12         -2.6550     3.3950     0.0280 ho         1 I7T       0.502000
     33 H5A          0.6540     0.2810    -1.7160 hc         1 I7T       0.058700
     34 H10          2.3990     4.2980     0.0030 ho         1 I7T       0.527000
     35 H9           5.6350     2.9330     0.3050 ha         1 I7T       0.136000
     36 H8           5.9540     0.5220     0.5670 ha         1 I7T       0.127000
     37 H61C         1.6250    -1.3450    -0.1950 hc         1 I7T       0.065700
     38 H62C         0.9900    -0.5000     1.2020 hc         1 I7T       0.065700
     39 H51C        -1.1260    -1.1120     0.2850 hc         1 I7T       0.050700
     40 H52C        -0.6820    -1.6050    -1.3330 hc         1 I7T       0.050700
     41 H41         -1.9010     0.3690    -2.2650 hc         1 I7T       0.084700
     42 H1C         -4.1390     1.2830    -1.4630 ho         1 I7T       0.517000
     43 H4          -3.0460    -1.8720    -2.0220 h1         1 I7T       0.071700
     44 H431        -6.0770    -0.5860    -0.8990 h1         1 I7T       0.047867
     45 H432        -6.4710    -0.0850    -2.5290 h1         1 I7T       0.047867
     46 H433        -5.9740    -1.7550    -2.2370 h1         1 I7T       0.047867
     47 H421        -4.2920    -1.2780    -4.0570 h1         1 I7T       0.047867
     48 H422        -4.8610     0.4000    -4.1270 h1         1 I7T       0.047867
     49 H423        -3.1590     0.0640    -3.8420 h1         1 I7T       0.047867
     50 H3          -4.6510    -2.9670     0.7220 ho         1 I7T       0.504000
     51 H211        -3.2280    -2.7560     2.4420 hn         1 I7T       0.305000
     52 H212        -4.5180    -2.6810     3.5460 hn         1 I7T       0.305000
@<TRIPOS>BOND
     1     1     2 1   
     2     1    32 1   
     3     2     3 2   
     4     2    15 1   
     5     3     4 1   
     6     3    28 1   
     7     4     5 2   
     8     4     6 1   
     9     6     7 ar  
    10     6    12 ar  
    11     7     8 1   
    12     7     9 ar  
    13     8    34 1   
    14     9    10 ar  
    15     9    35 1   
    16    10    11 ar  
    17    10    36 1   
    18    11    12 ar  
    19    11    30 1   
    20    12    13 1   
    21    13    28 1   
    22    13    37 1   
    23    13    38 1   
    24    14    19 1   
    25    14    28 1   
    26    14    39 1   
    27    14    40 1   
    28    15    16 1   
    29    15    18 1   
    30    15    19 1   
    31    16    17 2   
    32    16    26 1   
    33    18    42 1   
    34    19    20 1   
    35    19    41 1   
    36    20    21 1   
    37    20    24 1   
    38    20    43 1   
    39    21    22 1   
    40    21    23 1   
    41    22    47 1   
    42    22    48 1   
    43    22    49 1   
    44    23    44 1   
    45    23    45 1   
    46    23    46 1   
    47    24    25 1   
    48    24    26 2   
    49    25    50 1   
    50    26    27 1   
    51    27    29 2   
    52    27    31 1   
    53    28    33 1   
    54    31    51 1   
    55    31    52 1   
@<TRIPOS>SUBSTRUCTURE
     1 I7T         1 TEMP              0 ****  ****    0 ROOT
