@<TRIPOS>MOLECULE
I7V
   46    49     1     0     0
SMALL
No Charge or Current Charge


@<TRIPOS>ATOM
      1 C2         -10.0290   -58.9610    41.4610 ca         1 I7V       0.171100
      2 C4         -10.5450   -60.9350    42.8150 ca         1 I7V      -0.169600
      3 C5         -10.9890   -59.7800    42.1160 ca         1 I7V      -0.208600
      4 C6         -12.4650   -59.4370    42.0790 c          1 I7V       0.610300
      5 C8         -14.8180   -60.0460    42.7750 ca         1 I7V      -0.065000
      6 C9         -15.7400   -60.8750    43.4330 ca         1 I7V      -0.108000
      7 C10        -15.2940   -62.0120    44.1200 ca         1 I7V      -0.099000
      8 O7          -5.7230   -59.6780    42.1720 o          1 I7V      -0.557000
      9 O           -6.2660   -61.9530    43.2430 o          1 I7V      -0.557000
     10 N           -6.2860   -61.6470    40.7080 n3         1 I7V      -0.726500
     11 C19         -7.2250   -62.7410    40.3620 c6         1 I7V       0.218800
     12 C17         -7.2500   -62.9800    38.8280 c6         1 I7V      -0.195700
     13 C18         -7.7540   -64.4010    38.5120 c          1 I7V       0.721000
     14 O6          -7.0800   -65.3540    38.8740 o          1 I7V      -0.725500
     15 O5          -8.8080   -64.5120    37.9050 o          1 I7V      -0.725500
     16 C16         -5.8960   -62.6330    38.1360 c6         1 I7V      -0.049400
     17 C15         -4.7090   -62.8380    39.1010 c6         1 I7V      -0.075400
     18 C14         -4.8730   -62.0050    40.4030 c6         1 I7V       0.208800
     19 C           -8.2230   -60.4460    42.1880 ca         1 I7V      -0.381500
     20 C3          -9.1710   -61.2530    42.8450 ca         1 I7V       0.025000
     21 C13        -11.5170   -61.8450    43.5340 c          1 I7V       0.597300
     22 O3         -11.1250   -62.8400    44.1350 o          1 I7V      -0.523100
     23 C12        -12.9840   -61.4940    43.4900 ca         1 I7V      -0.117600
     24 C11        -13.9250   -62.3200    44.1490 ca         1 I7V      -0.074000
     25 C7         -13.4350   -60.3450    42.7950 ca         1 I7V      -0.126600
     26 O4         -12.8640   -58.4420    41.4800 o          1 I7V      -0.568100
     27 O2         -10.4320   -57.8350    40.7870 oh         1 I7V      -0.511100
     28 C1          -8.6480   -59.2930    41.5030 ca         1 I7V       0.257100
     29 O1          -7.7360   -58.4780    40.8830 oh         1 I7V      -0.503100
     30 H3         -15.1850   -59.1680    42.2470 ha         1 I7V       0.136000
     31 H4         -16.8010   -60.6340    43.4100 ha         1 I7V       0.115000
     32 H5         -16.0070   -62.6550    44.6310 ha         1 I7V       0.115000
     33 H15         -8.2540   -62.5220    40.6790 h1         1 I7V       0.057200
     34 H16         -6.9240   -63.6620    40.8850 h1         1 I7V       0.057200
     35 H13         -7.9950   -62.2880    38.4120 hc         1 I7V       0.044700
     36 H11         -5.9110   -61.5820    37.8140 hc         1 I7V       0.043700
     37 H12         -5.7620   -63.2300    37.2240 hc         1 I7V       0.043700
     38 H9          -3.7630   -62.5770    38.6070 hc         1 I7V       0.041200
     39 H10         -4.6350   -63.9030    39.3610 hc         1 I7V       0.041200
     40 H8          -4.2820   -61.0830    40.3020 h1         1 I7V       0.039700
     41 H7          -4.4280   -62.5750    41.2310 h1         1 I7V       0.039700
     42 H2          -8.8380   -62.1450    43.3770 ha         1 I7V       0.150000
     43 H6         -13.5970   -63.2070    44.6880 ha         1 I7V       0.137000
     44 H1         -11.4180   -57.7880    40.8780 ho         1 I7V       0.508000
     45 H           -6.8400   -58.7510    41.1950 ho         1 I7V       0.526000
     46 S           -6.4970   -60.9240    42.2260 sy         1 I7V       1.160600
@<TRIPOS>BOND
     1     1     3 ar  
     2     1    27 1   
     3     1    28 ar  
     4     2     3 ar  
     5     2    20 ar  
     6     2    21 1   
     7     3     4 1   
     8     4    25 1   
     9     4    26 2   
    10     5     6 ar  
    11     5    25 ar  
    12     5    30 1   
    13     6     7 ar  
    14     6    31 1   
    15     7    24 ar  
    16     7    32 1   
    17     8    46 2   
    18     9    46 2   
    19    10    11 1   
    20    10    18 1   
    21    10    46 1   
    22    11    12 1   
    23    11    33 1   
    24    11    34 1   
    25    12    13 1   
    26    12    16 1   
    27    12    35 1   
    28    13    14 1   
    29    13    15 1   
    30    16    17 1   
    31    16    36 1   
    32    16    37 1   
    33    17    18 1   
    34    17    38 1   
    35    17    39 1   
    36    18    40 1   
    37    18    41 1   
    38    19    20 ar  
    39    19    28 ar  
    40    19    46 1   
    41    20    42 1   
    42    21    22 2   
    43    21    23 1   
    44    23    24 ar  
    45    23    25 ar  
    46    24    43 1   
    47    27    44 1   
    48    28    29 1   
    49    29    45 1   
@<TRIPOS>SUBSTRUCTURE
     1 I7V         1 TEMP              0 ****  ****    0 ROOT
