@<TRIPOS>MOLECULE
I7V
   46    49     1     0     0
SMALL
bcc


@<TRIPOS>ATOM
      1 C2         -10.4630   -59.1240    41.2420 ca         1 I7V       0.171100
      2 C4         -10.3510   -60.8940    42.9040 ca         1 I7V      -0.169600
      3 C5         -11.1020   -59.9790    42.1370 ca         1 I7V      -0.208600
      4 C6         -12.5600   -59.9100    42.2730 c          1 I7V       0.610300
      5 C8         -14.6060   -60.7720    43.3620 ca         1 I7V      -0.083000
      6 C9         -15.2450   -61.6130    44.2570 ca         1 I7V      -0.126000
      7 C10        -14.5050   -62.5010    45.0290 ca         1 I7V      -0.117000
      8 O7          -6.1210   -59.1400    40.9360 o          1 I7V      -0.627800
      9 O           -6.0180   -60.7490    42.8650 o          1 I7V      -0.627800
     10 N           -6.4170   -61.5940    40.5520 n3         1 I7V      -0.726500
     11 C19         -6.9760   -61.4480    39.1990 c6         1 I7V       0.218800
     12 C17         -6.0640   -62.1610    38.1950 c6         1 I7V      -0.195700
     13 C18         -6.8200   -62.4520    36.8720 c          1 I7V       0.931600
     14 O6          -7.8290   -61.7520    36.6470 o          1 I7V      -0.830800
     15 O5          -6.3390   -63.3240    36.1250 o          1 I7V      -0.830800
     16 C16         -5.4230   -63.3960    38.8410 c6         1 I7V      -0.049400
     17 C15         -6.3300   -63.9540    39.9260 c6         1 I7V      -0.075400
     18 C14         -6.4550   -62.9660    41.0860 c6         1 I7V       0.208800
     19 C           -8.3450   -60.1250    41.8310 ca         1 I7V      -0.381500
     20 C3          -8.9870   -60.9620    42.7470 ca         1 I7V       0.007000
     21 C13        -11.0000   -61.7800    43.8910 c          1 I7V       0.597300
     22 O3         -10.3510   -62.5380    44.5820 o          1 I7V      -0.523100
     23 C12        -12.4760   -61.7090    44.0080 ca         1 I7V      -0.117600
     24 C11        -13.1270   -62.5490    44.9050 ca         1 I7V      -0.092000
     25 C7         -13.2210   -60.8150    43.2310 ca         1 I7V      -0.126600
     26 O4         -13.2200   -59.1210    41.6040 o          1 I7V      -0.568100
     27 O2         -11.0860   -58.2270    40.4970 oh         1 I7V      -0.472100
     28 C1          -9.0500   -59.1800    41.0930 ca         1 I7V       0.257100
     29 O1          -8.5320   -58.3060    40.2450 oh         1 I7V      -0.464100
     30 H3         -15.1840   -60.0810    42.7640 ha         1 I7V       0.154000
     31 H4         -16.3220   -61.5770    44.3540 ha         1 I7V       0.133000
     32 H5         -15.0060   -63.1580    45.7270 ha         1 I7V       0.133000
     33 H15         -7.0560   -60.3960    38.9380 h1         1 I7V       0.057200
     34 H16         -7.9900   -61.8580    39.1810 h1         1 I7V       0.057200
     35 H13         -5.2590   -61.4650    37.9300 hc         1 I7V       0.044700
     36 H11         -4.4560   -63.1410    39.2830 hc         1 I7V       0.043700
     37 H12         -5.2270   -64.1450    38.0760 hc         1 I7V       0.043700
     38 H9          -5.9460   -64.8950    40.3230 hc         1 I7V       0.041200
     39 H10         -7.3160   -64.1730    39.5070 hc         1 I7V       0.041200
     40 H8          -5.6160   -63.0930    41.7680 h1         1 I7V       0.039700
     41 H7          -7.3790   -63.1580    41.6410 h1         1 I7V       0.039700
     42 H2          -8.4150   -61.6580    43.3440 ha         1 I7V       0.168000
     43 H6         -12.5530   -63.2410    45.5070 ha         1 I7V       0.155000
     44 H1         -12.0490   -58.2930    40.6900 ho         1 I7V       0.469000
     45 H           -7.5550   -58.3400    40.2880 ho         1 I7V       0.487000
     46 S           -6.6000   -60.3590    41.5960 sy         1 I7V       1.302200
@<TRIPOS>BOND
     1     1     3 ar  
     2     1    27 1   
     3     1    28 ar  
     4     2     3 ar  
     5     2    20 ar  
     6     2    21 1   
     7     3     4 1   
     8     4    25 1   
     9     4    26 2   
    10     5     6 ar  
    11     5    25 ar  
    12     5    30 1   
    13     6     7 ar  
    14     6    31 1   
    15     7    24 ar  
    16     7    32 1   
    17     8    46 2   
    18     9    46 2   
    19    10    11 1   
    20    10    18 1   
    21    10    46 1   
    22    11    12 1   
    23    11    33 1   
    24    11    34 1   
    25    12    13 1   
    26    12    16 1   
    27    12    35 1   
    28    13    14 1   
    29    13    15 1   
    30    16    17 1   
    31    16    36 1   
    32    16    37 1   
    33    17    18 1   
    34    17    38 1   
    35    17    39 1   
    36    18    40 1   
    37    18    41 1   
    38    19    20 ar  
    39    19    28 ar  
    40    19    46 1   
    41    20    42 1   
    42    21    22 2   
    43    21    23 1   
    44    23    24 ar  
    45    23    25 ar  
    46    24    43 1   
    47    27    44 1   
    48    28    29 1   
    49    29    45 1   
@<TRIPOS>SUBSTRUCTURE
     1 I7V         1 TEMP              0 ****  ****    0 ROOT
