@<TRIPOS>MOLECULE
I7W
   20    21     1     0     0
SMALL
bcc


@<TRIPOS>ATOM
      1 C13        -17.5070    -1.9990   -26.3080 ca         1 I7W      -0.062000
      2 O01        -15.6780    -6.3780   -26.9480 o          1 I7W      -0.821300
      3 C02        -15.7180    -5.3930   -26.1880 c          1 I7W       0.926200
      4 O03        -15.1190    -5.2480   -25.1060 o          1 I7W      -0.821300
      5 C04        -16.6000    -4.2300   -26.6410 ca         1 I7W      -0.133600
      6 C05        -17.3340    -4.3170   -27.8480 ca         1 I7W      -0.068000
      7 C06        -18.1300    -3.2910   -28.2750 ca         1 I7W      -0.178000
      8 C07        -18.2420    -2.1030   -27.5180 ca         1 I7W      -0.025000
      9 C08        -19.0640    -1.0280   -27.9290 ca         1 I7W      -0.164000
     10 C09        -19.1320     0.0860   -27.1500 ca         1 I7W       0.103900
     11 F10        -19.9190     1.1060   -27.5260 f          1 I7W      -0.168900
     12 C11        -18.4110     0.2230   -25.9530 ca         1 I7W      -0.196000
     13 C12        -17.6120    -0.8100   -25.5460 ca         1 I7W      -0.082000
     14 C14        -16.6970    -3.0810   -25.8970 ca         1 I7W      -0.106000
     15 H2         -17.2610    -5.2200   -28.4400 ha         1 I7W       0.149000
     16 H3         -18.6870    -3.3760   -29.2010 ha         1 I7W       0.110000
     17 H4         -19.6310    -1.0960   -28.8490 ha         1 I7W       0.132000
     18 H5         -18.4930     1.1310   -25.3710 ha         1 I7W       0.129000
     19 H6         -17.0470    -0.7260   -24.6260 ha         1 I7W       0.127000
     20 H7         -16.1430    -2.9940   -24.9700 ha         1 I7W       0.149000
@<TRIPOS>BOND
     1     1     8 ar  
     2     1    13 ar  
     3     1    14 ar  
     4     2     3 1   
     5     3     4 1   
     6     3     5 1   
     7     5     6 ar  
     8     5    14 ar  
     9     6     7 ar  
    10     6    15 1   
    11     7     8 ar  
    12     7    16 1   
    13     8     9 ar  
    14     9    10 ar  
    15     9    17 1   
    16    10    11 1   
    17    10    12 ar  
    18    12    13 ar  
    19    12    18 1   
    20    13    19 1   
    21    14    20 1   
@<TRIPOS>SUBSTRUCTURE
     1 I7W         1 TEMP              0 ****  ****    0 ROOT
