@<TRIPOS>MOLECULE
I7W
   20    21     1     0     0
SMALL
No Charge or Current Charge


@<TRIPOS>ATOM
      1 C13        -17.5130    -1.9980   -26.3040 ca         1 I7W      -0.062000
      2 O01        -15.6520    -6.4030   -26.8920 o          1 I7W      -0.716000
      3 C02        -15.7110    -5.3990   -26.1960 c          1 I7W       0.715600
      4 O03        -15.0890    -5.2820   -25.1480 o          1 I7W      -0.716000
      5 C04        -16.5930    -4.2480   -26.6510 ca         1 I7W      -0.133600
      6 C05        -17.3300    -4.3380   -27.8550 ca         1 I7W      -0.050000
      7 C06        -18.1470    -3.2750   -28.2790 ca         1 I7W      -0.160000
      8 C07        -18.2420    -2.1050   -27.5090 ca         1 I7W      -0.025000
      9 C08        -19.0590    -1.0400   -27.9310 ca         1 I7W      -0.146000
     10 C09        -19.1460     0.1250   -27.1530 ca         1 I7W       0.139000
     11 F10        -19.9310     1.1460   -27.5600 f          1 I7W      -0.204000
     12 C11        -18.4240     0.2370   -25.9550 ca         1 I7W      -0.178000
     13 C12        -17.6060    -0.8250   -25.5290 ca         1 I7W      -0.064000
     14 C14        -16.6960    -3.0640   -25.8820 ca         1 I7W      -0.088000
     15 H2         -17.2730    -5.2350   -28.4690 ha         1 I7W       0.131000
     16 H3         -18.7050    -3.3660   -29.2080 ha         1 I7W       0.092000
     17 H4         -19.6240    -1.1120   -28.8570 ha         1 I7W       0.114000
     18 H5         -18.4980     1.1430   -25.3590 ha         1 I7W       0.111000
     19 H6         -17.0480    -0.7350   -24.6000 ha         1 I7W       0.109000
     20 H7         -16.1390    -2.9700   -24.9520 ha         1 I7W       0.131000
@<TRIPOS>BOND
     1     1     8 ar  
     2     1    13 ar  
     3     1    14 ar  
     4     2     3 1   
     5     3     4 1   
     6     3     5 1   
     7     5     6 ar  
     8     5    14 ar  
     9     6     7 ar  
    10     6    15 1   
    11     7     8 ar  
    12     7    16 1   
    13     8     9 ar  
    14     9    10 ar  
    15     9    17 1   
    16    10    11 1   
    17    10    12 ar  
    18    12    13 ar  
    19    12    18 1   
    20    13    19 1   
    21    14    20 1   
@<TRIPOS>SUBSTRUCTURE
     1 I7W         1 TEMP              0 ****  ****    0 ROOT
