@<TRIPOS>MOLECULE
I7X
   26    26     1     0     0
SMALL
No Charge or Current Charge


@<TRIPOS>ATOM
      1 C01          2.0530    -3.9070    23.7540 c3         1 I7X      -0.209400
      2 C02          2.6420    -5.1600    24.4270 c          1 I7X       0.717000
      3 C27          2.2210    -3.9980    22.2150 c3         1 I7X      -0.056400
      4 C28          1.7970    -2.7260    21.4420 c3         1 I7X      -0.077400
      5 C29          0.2850    -2.3990    21.5210 c3         1 I7X      -0.092400
      6 C30         -0.1280    -1.1460    20.7170 c3         1 I7X       0.067600
      7 C32         -0.7490    -1.9870    18.3970 cc         1 I7X      -0.228000
      8 C33         -0.1810    -1.8330    17.1590 cd         1 I7X       0.213900
      9 C35          1.0850    -0.7380    18.5190 cc         1 I7X       0.385400
     10 N31          0.0610    -1.2860    19.2650 na         1 I7X      -0.154500
     11 N34          0.9560    -1.0560    17.2380 nd         1 I7X      -0.688000
     12 O26          1.9130    -6.1290    24.5800 o          1 I7X      -0.740500
     13 H1           2.6050    -3.0110    24.0650 hc         1 I7X       0.012700
     14 H2           0.9740    -3.8490    23.9430 hc         1 I7X       0.012700
     15 H4           1.6540    -4.8580    21.8360 hc         1 I7X       0.044200
     16 H5           3.2760    -4.1990    21.9880 hc         1 I7X       0.044200
     17 H6           2.0780    -2.8610    20.3900 hc         1 I7X       0.025200
     18 H7           2.3740    -1.8690    21.8110 hc         1 I7X       0.025200
     19 H8           0.0030    -2.2350    22.5680 hc         1 I7X       0.055200
     20 H9          -0.2960    -3.2610    21.1690 hc         1 I7X       0.055200
     21 H10          0.4490    -0.2810    21.0700 h1         1 I7X       0.049200
     22 H11         -1.1890    -0.9360    20.9050 h1         1 I7X       0.049200
     23 H12         -1.6360    -2.5240    18.7090 h4         1 I7X       0.154000
     24 H13         -0.5290    -2.2380    16.2160 h4         1 I7X       0.027100
     25 H14          1.8700    -0.1340    18.9610 h5         1 I7X       0.049100
     26 OXT          3.8240    -5.1490    24.7320 o          1 I7X      -0.740500
@<TRIPOS>BOND
     1     1     2 1   
     2     1     3 1   
     3     1    13 1   
     4     1    14 1   
     5     2    12 1   
     6     2    26 1   
     7     3     4 1   
     8     3    15 1   
     9     3    16 1   
    10     4     5 1   
    11     4    17 1   
    12     4    18 1   
    13     5     6 1   
    14     5    19 1   
    15     5    20 1   
    16     6    10 1   
    17     6    21 1   
    18     6    22 1   
    19     7     8 2   
    20     7    10 1   
    21     7    23 1   
    22     8    11 1   
    23     8    24 1   
    24     9    10 1   
    25     9    11 2   
    26     9    25 1   
@<TRIPOS>SUBSTRUCTURE
     1 I7X         1 TEMP              0 ****  ****    0 ROOT
