@<TRIPOS>MOLECULE
I7X
   26    26     1     0     0
SMALL
abcg2


@<TRIPOS>ATOM
      1 C01          2.0100    -3.9530    23.6230 c3         1 I7X      -0.209400
      2 C02          2.5790    -5.1630    24.3950 c          1 I7X       0.717000
      3 C27          2.2210    -3.9750    22.1160 c3         1 I7X      -0.056400
      4 C28          1.7720    -2.7010    21.4030 c3         1 I7X      -0.077400
      5 C29          0.2780    -2.4230    21.5080 c3         1 I7X      -0.092400
      6 C30         -0.1670    -1.1810    20.7480 c3         1 I7X       0.067600
      7 C32         -0.5830    -2.1040    18.4460 cc         1 I7X      -0.228000
      8 C33          0.0020    -1.8870    17.2310 cd         1 I7X       0.213900
      9 C35          1.0000    -0.6140    18.6080 cc         1 I7X       0.385400
     10 N31          0.0640    -1.2770    19.3190 na         1 I7X      -0.154500
     11 N34          0.9910    -0.9520    17.3430 nd         1 I7X      -0.688000
     12 O26          2.0590    -5.3990    25.5060 o          1 I7X      -0.740500
     13 H1           2.4810    -3.0500    24.0330 hc         1 I7X       0.012700
     14 H2           0.9480    -3.8570    23.8630 hc         1 I7X       0.012700
     15 H4           1.6950    -4.8310    21.6800 hc         1 I7X       0.044200
     16 H5           3.2800    -4.1360    21.9070 hc         1 I7X       0.044200
     17 H6           2.0540    -2.7760    20.3480 hc         1 I7X       0.025200
     18 H7           2.3260    -1.8450    21.8050 hc         1 I7X       0.025200
     19 H8          -0.0080    -2.2750    22.5520 hc         1 I7X       0.055200
     20 H9          -0.2900    -3.2910    21.1570 hc         1 I7X       0.055200
     21 H10          0.3750    -0.3040    21.1060 h1         1 I7X       0.049200
     22 H11         -1.2280    -0.9940    20.9150 h1         1 I7X       0.049200
     23 H12         -1.3860    -2.7530    18.7550 h4         1 I7X       0.154000
     24 H13         -0.2420    -2.3510    16.2880 h4         1 I7X       0.027100
     25 H14          1.6570     0.1100    19.0690 h5         1 I7X       0.049100
     26 OXT          3.5250    -5.7870    23.8720 o          1 I7X      -0.740500
@<TRIPOS>BOND
     1     1     2 1   
     2     1     3 1   
     3     1    13 1   
     4     1    14 1   
     5     2    12 1   
     6     2    26 1   
     7     3     4 1   
     8     3    15 1   
     9     3    16 1   
    10     4     5 1   
    11     4    17 1   
    12     4    18 1   
    13     5     6 1   
    14     5    19 1   
    15     5    20 1   
    16     6    10 1   
    17     6    21 1   
    18     6    22 1   
    19     7     8 2   
    20     7    10 1   
    21     7    23 1   
    22     8    11 1   
    23     8    24 1   
    24     9    10 1   
    25     9    11 2   
    26     9    25 1   
@<TRIPOS>SUBSTRUCTURE
     1 I7X         1 TEMP              0 ****  ****    0 ROOT
