@<TRIPOS>MOLECULE
I7Y
  134   141     1     0     0
SMALL
abcg2


@<TRIPOS>ATOM
      1 C13        187.8260   156.4940   174.2970 c2         1 I7Y      -0.111400
      2 C15        185.6470   155.2720   174.2180 c6         1 I7Y      -0.037200
      3 C16        189.2980   156.5290   174.5900 c6         1 I7Y      -0.036200
      4 C17        189.5260   157.1550   175.9730 c6         1 I7Y       0.171300
      5 C01        182.8060   158.1430   172.2560 c3         1 I7Y      -0.081100
      6 C03        181.3490   157.5090   174.2500 c5         1 I7Y      -0.086700
      7 C04        181.2350   155.9790   174.0230 c5         1 I7Y       0.160300
      8 C06        183.5200   156.5850   174.1370 c5         1 I7Y      -0.065700
      9 C07        184.9990   156.5830   173.7820 c6         1 I7Y      -0.042700
     10 C08        185.6870   157.7890   174.4520 c6         1 I7Y      -0.043700
     11 C10        183.4380   159.0230   174.5150 c6         1 I7Y      -0.062400
     12 C18        188.4450   158.2080   176.2630 c6         1 I7Y      -0.100400
     13 C19        187.9550   158.8600   174.9790 c6         1 I7Y      -0.066400
     14 C02        182.7710   157.8730   173.7650 c5         1 I7Y      -0.036000
     15 C05        182.6180   155.4760   173.6030 c5         1 I7Y      -0.072400
     16 C09        184.9310   159.1010   174.1910 c6         1 I7Y      -0.070400
     17 C11        187.1890   157.8560   174.0790 c6         1 I7Y       0.000200
     18 C12        187.3880   158.2760   172.6140 c3         1 I7Y      -0.078100
     19 C14        187.1310   155.3590   174.3450 c2         1 I7Y      -0.216200
     20 C1B        195.1170   154.8880   181.0060 c3         1 I7Y       0.152900
     21 C1C        193.4910   159.0340   181.5020 c6         1 I7Y       0.411300
     22 C21        196.6040   164.0150   183.5640 c6         1 I7Y       0.141300
     23 C22        191.9220   156.7420   177.9290 c3         1 I7Y      -0.112400
     24 C23        192.7760   157.0520   179.1670 c3         1 I7Y      -0.096700
     25 C24        193.3940   155.7600   179.6910 c3         1 I7Y       0.167600
     26 C2C        192.9090   160.3680   181.9710 c6         1 I7Y       0.116300
     27 C31        198.0690   164.3130   183.2820 c6         1 I7Y       0.145300
     28 C3C        194.0420   161.3750   182.1090 c6         1 I7Y       0.117300
     29 C41        198.8190   164.2620   184.6080 c6         1 I7Y       0.104300
     30 C48        191.9190   157.7690   180.2140 c3         1 I7Y       0.176600
     31 C4C        195.1410   160.8310   183.0180 c6         1 I7Y       0.115300
     32 C51        198.3710   163.0380   185.4410 c6         1 I7Y       0.154300
     33 C5C        195.5750   159.4450   182.5380 c6         1 I7Y       0.177300
     34 C61        197.6470   163.4620   186.7110 c3         1 I7Y       0.132600
     35 C6C        196.5570   158.8010   183.4930 c3         1 I7Y       0.169600
     36 C73        179.2880   156.8290   173.2080 c5         1 I7Y       0.385000
     37 C74        180.1210   158.0820   173.5290 c5         1 I7Y      -0.065700
     38 C75        179.3880   159.1760   174.2880 c3         1 I7Y      -0.072100
     39 C76        178.4390   156.9450   171.9500 c6         1 I7Y      -0.082400
     40 C77        177.5270   155.7380   171.7630 c6         1 I7Y      -0.069400
     41 C78        176.7190   155.4760   173.0310 c6         1 I7Y      -0.099700
     42 C79        177.6680   155.4010   174.2170 c6         1 I7Y       0.165600
     43 C81        175.8830   154.2090   172.9290 c3         1 I7Y      -0.084100
     44 CF1        196.4520   162.5560   184.0540 c6         1 I7Y       0.407300
     45 O11        196.2550   161.7010   182.9830 os         1 I7Y      -0.442000
     46 O1B        194.5400   156.0380   180.4490 os         1 I7Y      -0.436000
     47 O1C        192.5330   158.0320   181.4640 os         1 I7Y      -0.429000
     48 O20        190.8320   157.7060   175.9640 os         1 I7Y      -0.460000
     49 O21        195.7890   164.1940   182.4310 oh         1 I7Y      -0.713000
     50 O2C        191.9520   160.8050   181.0410 oh         1 I7Y      -0.721000
     51 O31        198.1460   165.5840   182.6850 oh         1 I7Y      -0.671000
     52 O3C        193.4930   162.5720   182.5970 oh         1 I7Y      -0.746000
     53 O41        200.1960   164.2570   184.3080 oh         1 I7Y      -0.710000
     54 O51        197.6300   162.1120   184.6710 os         1 I7Y      -0.454000
     55 O5C        194.4360   158.6130   182.4460 os         1 I7Y      -0.432000
     56 O6C        196.9970   157.5810   182.9450 oh         1 I7Y      -0.708000
     57 O72        180.2420   155.8130   173.0240 os         1 I7Y      -0.465000
     58 O80        178.4860   156.5520   174.3290 os         1 I7Y      -0.473000
     59 H2         185.2340   154.9630   175.1870 hc         1 I7Y       0.046700
     60 H3         185.3750   154.4720   173.5230 hc         1 I7Y       0.046700
     61 H4         189.7340   155.5300   174.5450 hc         1 I7Y       0.057700
     62 H5         189.8180   157.1400   173.8450 hc         1 I7Y       0.057700
     63 H6         189.4560   156.3620   176.7300 h1         1 I7Y       0.034700
     64 H7         182.2390   157.4110   171.6810 hc         1 I7Y       0.035700
     65 H8         182.3830   159.1250   172.0330 hc         1 I7Y       0.035700
     66 H9         183.8210   158.1410   171.8640 hc         1 I7Y       0.035700
     67 H10        181.2880   157.7300   175.3200 hc         1 I7Y       0.063700
     68 H11        180.9220   155.4730   174.9440 h1         1 I7Y       0.050700
     69 H12        183.4770   156.5170   175.2370 hc         1 I7Y       0.043700
     70 H13        185.1060   156.6660   172.6950 hc         1 I7Y       0.055700
     71 H14        185.6370   157.6070   175.5380 hc         1 I7Y       0.046700
     72 H15        183.3060   158.8700   175.5920 hc         1 I7Y       0.039700
     73 H16        182.9610   159.9770   174.2750 hc         1 I7Y       0.039700
     74 H17        188.8210   158.9620   176.9590 hc         1 I7Y       0.046200
     75 H18        187.6070   157.7270   176.7760 hc         1 I7Y       0.046200
     76 H19        188.8190   159.2490   174.4310 hc         1 I7Y       0.046200
     77 H20        187.3350   159.7290   175.2010 hc         1 I7Y       0.046200
     78 H23        182.6940   155.3900   172.5160 hc         1 I7Y       0.055200
     79 H24        182.8490   154.4960   174.0250 hc         1 I7Y       0.055200
     80 H25        185.0560   159.4110   173.1510 hc         1 I7Y       0.040200
     81 H26        185.3700   159.9030   174.7900 hc         1 I7Y       0.040200
     82 H27        188.4320   158.1640   172.3160 hc         1 I7Y       0.034700
     83 H28        186.7860   157.6800   171.9270 hc         1 I7Y       0.034700
     84 H29        187.1250   159.3250   172.4650 hc         1 I7Y       0.034700
     85 H30        187.6620   154.4290   174.5330 ha         1 I7Y       0.170000
     86 H32        195.9960   155.1960   181.5710 h1         1 I7Y       0.026367
     87 H33        194.4320   154.3710   181.6900 h1         1 I7Y       0.026367
     88 H34        195.4290   154.1670   180.2400 h1         1 I7Y       0.026367
     89 H35        193.9670   159.1750   180.5150 h2         1 I7Y       0.036700
     90 H36        196.2670   164.6800   184.3720 h1         1 I7Y       0.036700
     91 H37        191.1030   156.0710   178.2090 hc         1 I7Y       0.048700
     92 H38        192.5400   156.1980   177.2100 hc         1 I7Y       0.048700
     93 H39        193.5960   157.7020   178.8390 hc         1 I7Y       0.065700
     94 H40        192.6510   155.2050   180.2860 h1         1 I7Y       0.017700
     95 H41        193.6590   155.1110   178.8420 h1         1 I7Y       0.017700
     96 H42        192.4570   160.2050   182.9630 h1         1 I7Y       0.061700
     97 H43        198.4760   163.5430   182.6090 h1         1 I7Y       0.086700
     98 H44        194.4800   161.5230   181.1080 h1         1 I7Y       0.054700
     99 H45        198.5540   165.1780   185.1580 h1         1 I7Y       0.040700
    100 H46        191.5120   158.6910   179.7910 h1         1 I7Y       0.052700
    101 H47        191.0660   157.1280   180.4520 h1         1 I7Y       0.052700
    102 H48        194.7500   160.7430   184.0420 h1         1 I7Y       0.063700
    103 H49        199.2670   162.4830   185.7370 h1         1 I7Y       0.098700
    104 H50        196.0500   159.5480   181.5480 h1         1 I7Y       0.063700
    105 H51        196.7620   164.0670   186.4700 h1         1 I7Y       0.020200
    106 H52        198.3270   164.1210   187.2680 h1         1 I7Y       0.020200
    107 H53        197.3900   159.4940   183.6490 h1         1 I7Y       0.038200
    108 H54        196.0650   158.6610   184.4660 h1         1 I7Y       0.038200
    109 H55        180.4160   158.4990   172.5630 hc         1 I7Y       0.061700
    110 H56        180.0180   160.0640   174.3650 hc         1 I7Y       0.037367
    111 H57        178.4710   159.4740   173.7760 hc         1 I7Y       0.037367
    112 H58        179.1270   158.8690   175.3000 hc         1 I7Y       0.037367
    113 H59        179.0910   157.0860   171.0850 hc         1 I7Y       0.055200
    114 H60        177.8320   157.8520   172.0360 hc         1 I7Y       0.055200
    115 H61        176.8560   155.9010   170.9160 hc         1 I7Y       0.047700
    116 H62        178.1200   154.8500   171.5200 hc         1 I7Y       0.047700
    117 H63        176.0470   156.3290   173.1900 hc         1 I7Y       0.053700
    118 H64        177.1090   155.3350   175.1530 h1         1 I7Y       0.047200
    119 H65        178.2780   154.4900   174.1410 h1         1 I7Y       0.047200
    120 H66        175.2940   154.0430   173.8330 hc         1 I7Y       0.034367
    121 H67        175.1920   154.2660   172.0870 hc         1 I7Y       0.034367
    122 H68        176.5170   153.3320   172.7790 hc         1 I7Y       0.034367
    123 H69        195.6030   162.4880   184.7500 h2         1 I7Y       0.049700
    124 H70        195.7910   165.1300   182.2030 ho         1 I7Y       0.529000
    125 H71        191.6590   161.6830   181.3100 ho         1 I7Y       0.521000
    126 H72        199.0540   165.7350   182.4040 ho         1 I7Y       0.467000
    127 H73        194.1500   163.2770   182.4650 ho         1 I7Y       0.538000
    128 H74        200.6870   164.4830   185.1040 ho         1 I7Y       0.509000
    129 H75        196.8410   162.5890   188.2380 ho         1 I7Y       0.507000
    130 H76        197.6660   157.2140   183.5300 ho         1 I7Y       0.499000
    131 CG1        191.3800   157.9850   177.2310 c3         1 I7Y       0.157600
    132 O61        197.3050   162.3120   187.4430 oh         1 I7Y      -0.702000
    133 H21        192.2010   158.6880   177.0650 h1         1 I7Y       0.046200
    134 H22        190.6510   158.5030   177.8650 h1         1 I7Y       0.046200
@<TRIPOS>BOND
     1     1     3 1   
     2     1    17 1   
     3     1    19 2   
     4     2     9 1   
     5     2    19 1   
     6     2    59 1   
     7     2    60 1   
     8     3     4 1   
     9     3    61 1   
    10     3    62 1   
    11     4    12 1   
    12     4    48 1   
    13     4    63 1   
    14     5    14 1   
    15     5    64 1   
    16     5    65 1   
    17     5    66 1   
    18     6     7 1   
    19     6    14 1   
    20     6    37 1   
    21     6    67 1   
    22     7    15 1   
    23     7    57 1   
    24     7    68 1   
    25     8     9 1   
    26     8    14 1   
    27     8    15 1   
    28     8    69 1   
    29     9    10 1   
    30     9    70 1   
    31    10    16 1   
    32    10    17 1   
    33    10    71 1   
    34    11    14 1   
    35    11    16 1   
    36    11    72 1   
    37    11    73 1   
    38    12    13 1   
    39    12    74 1   
    40    12    75 1   
    41    13    17 1   
    42    13    76 1   
    43    13    77 1   
    44    15    78 1   
    45    15    79 1   
    46    16    80 1   
    47    16    81 1   
    48    17    18 1   
    49    18    82 1   
    50    18    83 1   
    51    18    84 1   
    52    19    85 1   
    53    20    46 1   
    54    20    86 1   
    55    20    87 1   
    56    20    88 1   
    57    21    26 1   
    58    21    47 1   
    59    21    55 1   
    60    21    89 1   
    61    22    27 1   
    62    22    44 1   
    63    22    49 1   
    64    22    90 1   
    65    23    24 1   
    66    23    91 1   
    67    23    92 1   
    68    23   131 1   
    69    24    25 1   
    70    24    30 1   
    71    24    93 1   
    72    25    46 1   
    73    25    94 1   
    74    25    95 1   
    75    26    28 1   
    76    26    50 1   
    77    26    96 1   
    78    27    29 1   
    79    27    51 1   
    80    27    97 1   
    81    28    31 1   
    82    28    52 1   
    83    28    98 1   
    84    29    32 1   
    85    29    53 1   
    86    29    99 1   
    87    30    47 1   
    88    30   100 1   
    89    30   101 1   
    90    31    33 1   
    91    31    45 1   
    92    31   102 1   
    93    32    34 1   
    94    32    54 1   
    95    32   103 1   
    96    33    35 1   
    97    33    55 1   
    98    33   104 1   
    99    34   105 1   
   100    34   106 1   
   101    34   132 1   
   102    35    56 1   
   103    35   107 1   
   104    35   108 1   
   105    36    37 1   
   106    36    39 1   
   107    36    57 1   
   108    36    58 1   
   109    37    38 1   
   110    37   109 1   
   111    38   110 1   
   112    38   111 1   
   113    38   112 1   
   114    39    40 1   
   115    39   113 1   
   116    39   114 1   
   117    40    41 1   
   118    40   115 1   
   119    40   116 1   
   120    41    42 1   
   121    41    43 1   
   122    41   117 1   
   123    42    58 1   
   124    42   118 1   
   125    42   119 1   
   126    43   120 1   
   127    43   121 1   
   128    43   122 1   
   129    44    45 1   
   130    44    54 1   
   131    44   123 1   
   132    48   131 1   
   133    49   124 1   
   134    50   125 1   
   135    51   126 1   
   136    52   127 1   
   137    53   128 1   
   138    56   130 1   
   139   129   132 1   
   140   131   133 1   
   141   131   134 1   
@<TRIPOS>SUBSTRUCTURE
     1 I7Y         1 TEMP              0 ****  ****    0 ROOT
