@<TRIPOS>MOLECULE
I7Y
  134   141     1     0     0
SMALL
No Charge or Current Charge


@<TRIPOS>ATOM
      1 C13        187.8550   157.2500   174.1430 c2         1 I7Y      -0.111400
      2 C15        185.8730   155.7860   173.4750 c6         1 I7Y      -0.037200
      3 C16        189.3240   157.3610   174.5460 c6         1 I7Y      -0.036200
      4 C17        189.4850   157.5830   176.0780 c6         1 I7Y       0.171300
      5 C01        182.3170   158.6360   172.7370 c3         1 I7Y      -0.081100
      6 C03        181.2210   156.8740   174.4470 c5         1 I7Y      -0.086700
      7 C04        181.3070   155.6540   173.4850 c5         1 I7Y       0.160300
      8 C06        183.4850   156.6010   173.9010 c5         1 I7Y      -0.065700
      9 C07        184.9470   157.0260   173.5800 c6         1 I7Y      -0.042700
     10 C08        185.4900   158.0390   174.6830 c6         1 I7Y      -0.043700
     11 C10        183.0270   158.7570   175.1690 c6         1 I7Y      -0.062400
     12 C18        188.2470   158.3190   176.6850 c6         1 I7Y      -0.100400
     13 C19        187.6100   159.2840   175.6550 c6         1 I7Y      -0.066400
     14 C02        182.4820   157.7870   174.0530 c5         1 I7Y      -0.036000
     15 C05        182.7470   155.6830   172.8790 c5         1 I7Y      -0.072400
     16 C09        184.4790   159.2320   174.8730 c6         1 I7Y      -0.070400
     17 C11        187.0040   158.5090   174.4250 c6         1 I7Y       0.000200
     18 C12        187.1070   159.4180   173.1570 c3         1 I7Y      -0.078100
     19 C14        187.3500   156.0820   173.6990 c2         1 I7Y      -0.216200
     20 C1B        194.8160   154.4400   180.9730 c3         1 I7Y       0.152900
     21 C1C        193.7800   158.5700   181.8370 c6         1 I7Y       0.411300
     22 C21        197.4530   163.5630   182.7080 c6         1 I7Y       0.141300
     23 C22        191.6670   157.0030   178.1790 c3         1 I7Y      -0.112400
     24 C23        192.5390   157.0290   179.4670 c3         1 I7Y      -0.096700
     25 C24        193.0620   155.6010   179.7840 c3         1 I7Y       0.167600
     26 C2C        193.5440   160.1150   181.6080 c6         1 I7Y       0.116300
     27 C31        198.9640   163.7200   182.9990 c6         1 I7Y       0.145300
     28 C3C        194.9090   160.8490   181.7160 c6         1 I7Y       0.117300
     29 C41        199.1590   164.3650   184.4130 c6         1 I7Y       0.104300
     30 C48        191.7550   157.6590   180.6640 c3         1 I7Y       0.176600
     31 C4C        195.5790   160.5430   183.0920 c6         1 I7Y       0.115300
     32 C51        198.1370   163.7730   185.4570 c6         1 I7Y       0.154300
     33 C5C        195.7210   159.0010   183.2440 c6         1 I7Y       0.177300
     34 C61        196.9750   164.7670   185.8230 c3         1 I7Y       0.132600
     35 C6C        196.3350   158.5990   184.6250 c3         1 I7Y       0.169600
     36 C73        179.1790   156.4790   173.1720 c5         1 I7Y       0.385000
     37 C74        179.8370   157.5470   174.1150 c5         1 I7Y      -0.065700
     38 C75        179.0200   157.9690   175.3620 c3         1 I7Y      -0.072100
     39 C76        178.1310   157.0560   172.1820 c6         1 I7Y      -0.082400
     40 C77        177.3680   155.9470   171.4340 c6         1 I7Y      -0.069400
     41 C78        176.7150   154.9960   172.4590 c6         1 I7Y      -0.099700
     42 C79        177.7850   154.4190   173.4210 c6         1 I7Y       0.165600
     43 C81        175.9140   153.8660   171.7590 c3         1 I7Y      -0.084100
     44 CF1        196.8330   162.5490   183.7490 c6         1 I7Y       0.407300
     45 O11        196.8640   161.2000   183.2280 os         1 I7Y      -0.442000
     46 O1B        194.2530   155.7010   180.5800 os         1 I7Y      -0.436000
     47 O1C        192.5670   157.7760   181.8540 os         1 I7Y      -0.429000
     48 O20        190.7260   158.2960   176.3190 os         1 I7Y      -0.460000
     49 O21        197.2190   163.2200   181.3220 oh         1 I7Y      -0.713000
     50 O2C        192.9650   160.4720   180.3360 oh         1 I7Y      -0.721000
     51 O31        199.6050   164.5190   181.9840 oh         1 I7Y      -0.671000
     52 O3C        194.7380   162.2590   181.4740 oh         1 I7Y      -0.746000
     53 O41        200.5310   164.1870   184.8260 oh         1 I7Y      -0.710000
     54 O51        197.5900   162.5090   184.9860 os         1 I7Y      -0.454000
     55 O5C        194.4140   158.3810   183.1210 os         1 I7Y      -0.432000
     56 O6C        196.4300   157.1720   184.8180 oh         1 I7Y      -0.708000
     57 O72        180.3140   155.9190   172.4800 os         1 I7Y      -0.465000
     58 O80        178.6210   155.4370   174.0220 os         1 I7Y      -0.473000
     59 H2         185.5720   155.0300   174.2130 hc         1 I7Y       0.046700
     60 H3         185.7420   155.3170   172.4910 hc         1 I7Y       0.046700
     61 H4         189.8800   156.4600   174.2540 hc         1 I7Y       0.057700
     62 H5         189.7870   158.1900   173.9950 hc         1 I7Y       0.057700
     63 H6         189.5500   156.5930   176.5490 h1         1 I7Y       0.034700
     64 H7         181.7460   158.1180   171.9590 hc         1 I7Y       0.035700
     65 H8         181.7940   159.5770   172.9440 hc         1 I7Y       0.035700
     66 H9         183.2750   158.9160   172.2870 hc         1 I7Y       0.035700
     67 H10        181.2730   156.5350   175.4890 hc         1 I7Y       0.063700
     68 H11        181.0820   154.7090   174.0000 h1         1 I7Y       0.050700
     69 H12        183.5740   156.0630   174.8540 hc         1 I7Y       0.043700
     70 H13        184.9640   157.5240   172.6040 hc         1 I7Y       0.055700
     71 H14        185.4940   157.4860   175.6320 hc         1 I7Y       0.046700
     72 H15        183.0140   158.2390   176.1380 hc         1 I7Y       0.039700
     73 H16        182.3600   159.6220   175.2820 hc         1 I7Y       0.039700
     74 H17        188.5090   158.8700   177.5950 hc         1 I7Y       0.046200
     75 H18        187.5010   157.5750   176.9950 hc         1 I7Y       0.046200
     76 H19        188.3900   159.9800   175.3170 hc         1 I7Y       0.046200
     77 H20        186.8680   159.9170   176.1530 hc         1 I7Y       0.046200
     78 H23        182.7730   156.0780   171.8580 hc         1 I7Y       0.055200
     79 H24        183.1830   154.6790   172.8420 hc         1 I7Y       0.055200
     80 H25        184.4750   159.8800   173.9890 hc         1 I7Y       0.040200
     81 H26        184.7850   159.8740   175.7060 hc         1 I7Y       0.040200
     82 H27        188.1500   159.6640   172.9280 hc         1 I7Y       0.034700
     83 H28        186.6960   158.9320   172.2650 hc         1 I7Y       0.034700
     84 H29        186.5830   160.3710   173.2920 hc         1 I7Y       0.034700
     85 H30        188.0090   155.2230   173.5630 ha         1 I7Y       0.170000
     86 H32        195.7190   154.5980   181.5760 h1         1 I7Y       0.026367
     87 H33        194.1000   153.8640   181.5730 h1         1 I7Y       0.026367
     88 H34        195.0920   153.8450   180.0930 h1         1 I7Y       0.026367
     89 H35        194.4550   158.1920   181.0560 h2         1 I7Y       0.036700
     90 H36        196.9860   164.5410   182.8890 h1         1 I7Y       0.036700
     91 H37        190.7750   156.3950   178.3720 hc         1 I7Y       0.048700
     92 H38        192.2290   156.5040   177.3800 hc         1 I7Y       0.048700
     93 H39        193.4050   157.6610   179.2360 hc         1 I7Y       0.065700
     94 H40        192.2830   155.0270   180.3050 h1         1 I7Y       0.017700
     95 H41        193.2950   155.0790   178.8460 h1         1 I7Y       0.017700
     96 H42        192.8960   160.4740   182.4220 h1         1 I7Y       0.061700
     97 H43        199.4070   162.7110   183.0190 h1         1 I7Y       0.086700
     98 H44        195.5670   160.4330   180.9380 h1         1 I7Y       0.054700
     99 H45        198.9510   165.4420   184.3200 h1         1 I7Y       0.040700
    100 H46        191.3460   158.6350   180.3830 h1         1 I7Y       0.052700
    101 H47        190.8900   157.0190   180.8800 h1         1 I7Y       0.052700
    102 H48        194.9170   160.8900   183.9000 h1         1 I7Y       0.063700
    103 H49        198.6760   163.5700   186.3930 h1         1 I7Y       0.098700
    104 H50        196.3770   158.6120   182.4510 h1         1 I7Y       0.063700
    105 H51        196.5010   165.1320   184.9030 h1         1 I7Y       0.020200
    106 H52        197.4260   165.6400   186.3140 h1         1 I7Y       0.020200
    107 H53        197.3340   159.0520   184.7010 h1         1 I7Y       0.038200
    108 H54        195.7170   159.0460   185.4160 h1         1 I7Y       0.038200
    109 H55        179.9400   158.4750   173.5510 hc         1 I7Y       0.061700
    110 H56        179.5490   158.7450   175.9280 hc         1 I7Y       0.037367
    111 H57        178.0420   158.3750   175.0770 hc         1 I7Y       0.037367
    112 H58        178.8480   157.1250   176.0400 hc         1 I7Y       0.037367
    113 H59        178.6330   157.7150   171.4610 hc         1 I7Y       0.055200
    114 H60        177.4200   157.6870   172.7310 hc         1 I7Y       0.055200
    115 H61        176.6040   156.3940   170.7830 hc         1 I7Y       0.047700
    116 H62        178.0570   155.3910   170.7830 hc         1 I7Y       0.047700
    117 H63        175.9870   155.5650   173.0550 hc         1 I7Y       0.053700
    118 H64        177.3030   153.8390   174.2210 h1         1 I7Y       0.047200
    119 H65        178.4370   153.7320   172.8620 h1         1 I7Y       0.047200
    120 H66        175.4260   153.2140   172.4930 hc         1 I7Y       0.034367
    121 H67        175.1300   154.2790   171.1120 hc         1 I7Y       0.034367
    122 H68        176.5650   153.2410   171.1370 hc         1 I7Y       0.034367
    123 H69        195.7970   162.8530   183.9620 h2         1 I7Y       0.049700
    124 H70        197.9940   163.6170   180.8490 ho         1 I7Y       0.529000
    125 H71        193.2540   161.4100   180.2140 ho         1 I7Y       0.521000
    126 H72        200.5070   164.7100   182.3310 ho         1 I7Y       0.467000
    127 H73        195.6670   162.6300   181.3760 ho         1 I7Y       0.538000
    128 H74        200.7080   164.8190   185.5630 ho         1 I7Y       0.509000
    129 H75        195.3450   164.9020   186.9230 ho         1 I7Y       0.507000
    130 H76        196.7660   157.0260   185.7330 ho         1 I7Y       0.499000
    131 CG1        191.2430   158.4030   177.6660 c3         1 I7Y       0.157600
    132 O61        195.9810   164.1870   186.6860 oh         1 I7Y      -0.702000
    133 H21        192.1270   159.0550   177.6610 h1         1 I7Y       0.046200
    134 H22        190.5120   158.8550   178.3470 h1         1 I7Y       0.046200
@<TRIPOS>BOND
     1     1     3 1   
     2     1    17 1   
     3     1    19 2   
     4     2     9 1   
     5     2    19 1   
     6     2    59 1   
     7     2    60 1   
     8     3     4 1   
     9     3    61 1   
    10     3    62 1   
    11     4    12 1   
    12     4    48 1   
    13     4    63 1   
    14     5    14 1   
    15     5    64 1   
    16     5    65 1   
    17     5    66 1   
    18     6     7 1   
    19     6    14 1   
    20     6    37 1   
    21     6    67 1   
    22     7    15 1   
    23     7    57 1   
    24     7    68 1   
    25     8     9 1   
    26     8    14 1   
    27     8    15 1   
    28     8    69 1   
    29     9    10 1   
    30     9    70 1   
    31    10    16 1   
    32    10    17 1   
    33    10    71 1   
    34    11    14 1   
    35    11    16 1   
    36    11    72 1   
    37    11    73 1   
    38    12    13 1   
    39    12    74 1   
    40    12    75 1   
    41    13    17 1   
    42    13    76 1   
    43    13    77 1   
    44    15    78 1   
    45    15    79 1   
    46    16    80 1   
    47    16    81 1   
    48    17    18 1   
    49    18    82 1   
    50    18    83 1   
    51    18    84 1   
    52    19    85 1   
    53    20    46 1   
    54    20    86 1   
    55    20    87 1   
    56    20    88 1   
    57    21    26 1   
    58    21    47 1   
    59    21    55 1   
    60    21    89 1   
    61    22    27 1   
    62    22    44 1   
    63    22    49 1   
    64    22    90 1   
    65    23    24 1   
    66    23    91 1   
    67    23    92 1   
    68    23   131 1   
    69    24    25 1   
    70    24    30 1   
    71    24    93 1   
    72    25    46 1   
    73    25    94 1   
    74    25    95 1   
    75    26    28 1   
    76    26    50 1   
    77    26    96 1   
    78    27    29 1   
    79    27    51 1   
    80    27    97 1   
    81    28    31 1   
    82    28    52 1   
    83    28    98 1   
    84    29    32 1   
    85    29    53 1   
    86    29    99 1   
    87    30    47 1   
    88    30   100 1   
    89    30   101 1   
    90    31    33 1   
    91    31    45 1   
    92    31   102 1   
    93    32    34 1   
    94    32    54 1   
    95    32   103 1   
    96    33    35 1   
    97    33    55 1   
    98    33   104 1   
    99    34   105 1   
   100    34   106 1   
   101    34   132 1   
   102    35    56 1   
   103    35   107 1   
   104    35   108 1   
   105    36    37 1   
   106    36    39 1   
   107    36    57 1   
   108    36    58 1   
   109    37    38 1   
   110    37   109 1   
   111    38   110 1   
   112    38   111 1   
   113    38   112 1   
   114    39    40 1   
   115    39   113 1   
   116    39   114 1   
   117    40    41 1   
   118    40   115 1   
   119    40   116 1   
   120    41    42 1   
   121    41    43 1   
   122    41   117 1   
   123    42    58 1   
   124    42   118 1   
   125    42   119 1   
   126    43   120 1   
   127    43   121 1   
   128    43   122 1   
   129    44    45 1   
   130    44    54 1   
   131    44   123 1   
   132    48   131 1   
   133    49   124 1   
   134    50   125 1   
   135    51   126 1   
   136    52   127 1   
   137    53   128 1   
   138    56   130 1   
   139   129   132 1   
   140   131   133 1   
   141   131   134 1   
@<TRIPOS>SUBSTRUCTURE
     1 I7Y         1 TEMP              0 ****  ****    0 ROOT
