@<TRIPOS>MOLECULE
I7Z
   15    15     1     0     0
SMALL
bcc


@<TRIPOS>ATOM
      1 N01         -9.2310   -36.9070   -20.7100 n1         1 I7Z      -0.379800
      2 C02         -8.1020   -36.6890   -20.6030 cg         1 I7Z       0.241800
      3 C03         -6.7120   -36.4220   -20.4950 ca         1 I7Z      -0.120000
      4 C04         -5.8640   -36.6890   -21.5930 ca         1 I7Z       0.244600
      5 C05         -4.4950   -36.4130   -21.4340 ca         1 I7Z      -0.223000
      6 C06         -4.0250   -35.9060   -20.2440 ca         1 I7Z       0.100400
      7 CL1         -2.3330   -35.5870   -20.0920 cl         1 I7Z      -0.103400
      8 C08         -4.8580   -35.6380   -19.1590 ca         1 I7Z      -0.188000
      9 C09         -6.2010   -35.9020   -19.3030 ca         1 I7Z      -0.030000
     10 N10         -6.3230   -37.2240   -22.7450 nv         1 I7Z      -0.850200
     11 H1          -3.8170   -36.6060   -22.2560 ha         1 I7Z       0.149000
     12 H2          -4.4650   -35.2360   -18.2360 ha         1 I7Z       0.155000
     13 H3          -6.8770   -35.7060   -18.4820 ha         1 I7Z       0.145000
     14 H4          -7.3070   -37.2190   -22.9540 hn         1 I7Z       0.429300
     15 H5          -5.7190   -37.2290   -23.5490 hn         1 I7Z       0.429300
@<TRIPOS>BOND
     1     1     2 3   
     2     2     3 1   
     3     3     4 ar  
     4     3     9 ar  
     5     4     5 ar  
     6     4    10 1   
     7     5     6 ar  
     8     5    11 1   
     9     6     7 1   
    10     6     8 ar  
    11     8     9 ar  
    12     8    12 1   
    13     9    13 1   
    14    10    14 1   
    15    10    15 1   
@<TRIPOS>SUBSTRUCTURE
     1 I7Z         1 TEMP              0 ****  ****    0 ROOT
