@<TRIPOS>MOLECULE
I7Z
   15    15     1     0     0
SMALL
No Charge or Current Charge


@<TRIPOS>ATOM
      1 N01         -9.2930   -36.8980   -20.6680 n1         1 I7Z      -0.469000
      2 C02         -8.1460   -36.6930   -20.5970 cg         1 I7Z       0.331000
      3 C03         -6.7380   -36.4310   -20.4990 ca         1 I7Z      -0.120000
      4 C04         -5.8620   -36.6900   -21.5780 ca         1 I7Z       0.383000
      5 C05         -4.4940   -36.4230   -21.4420 ca         1 I7Z      -0.205000
      6 C06         -3.9910   -35.9000   -20.2430 ca         1 I7Z       0.192000
      7 Cl1         -2.2720   -35.5690   -20.0850 cl         1 I7Z      -0.195000
      8 C08         -4.8540   -35.6400   -19.1700 ca         1 I7Z      -0.170000
      9 C09         -6.2270   -35.9050   -19.2950 ca         1 I7Z      -0.012000
     10 N10         -6.3040   -37.2030   -22.7730 nv         1 I7Z      -1.099000
     11 H1          -3.8140   -36.6210   -22.2640 ha         1 I7Z       0.131000
     12 H2          -4.4590   -35.2340   -18.2420 ha         1 I7Z       0.137000
     13 H3          -6.8920   -35.7010   -18.4570 ha         1 I7Z       0.127000
     14 H4          -7.3040   -37.2460   -22.9670 hn         1 I7Z       0.484500
     15 H5          -5.6780   -37.2180   -23.5770 hn         1 I7Z       0.484500
@<TRIPOS>BOND
     1     1     2 3   
     2     2     3 1   
     3     3     4 ar  
     4     3     9 ar  
     5     4     5 ar  
     6     4    10 1   
     7     5     6 ar  
     8     5    11 1   
     9     6     7 1   
    10     6     8 ar  
    11     8     9 ar  
    12     8    12 1   
    13     9    13 1   
    14    10    14 1   
    15    10    15 1   
@<TRIPOS>SUBSTRUCTURE
     1 I7Z         1 TEMP              0 ****  ****    0 ROOT
