@<TRIPOS>MOLECULE
I81
   38    39     1     0     0
SMALL
No Charge or Current Charge


@<TRIPOS>ATOM
      1 N1          -4.1120    34.9670    18.5740 n3         1 I81      -0.717600
      2 C4           0.0120    33.0780    17.1170 ca         1 I81      -0.075000
      3 C5          -0.8040    34.1600    17.4840 ca         1 I81      -0.146000
      4 C6          -2.1790    34.1510    17.1780 ca         1 I81      -0.052300
      5 C7          -3.0730    35.3240    17.5770 c3         1 I81       0.211100
      6 C8          -3.5390    34.4800    19.8610 c6         1 I81       0.164300
      7 C10         -5.6530    35.1860    21.1380 c6         1 I81      -0.155700
      8 C13         -6.7800    34.7320    22.0870 c          1 I81       0.610100
      9 C1          -1.7750    29.7430    15.0480 c3         1 I81       0.149900
     10 C2          -1.9170    31.9570    16.1290 ca         1 I81       0.135100
     11 C3          -0.5390    31.9760    16.4400 ca         1 I81      -0.196000
     12 C9          -4.6510    34.0300    20.8400 c6         1 I81      -0.067400
     13 C11         -6.2140    35.6500    19.7600 c6         1 I81      -0.067400
     14 C12         -5.0770    36.0760    18.7990 c6         1 I81       0.164300
     15 O2          -6.9790    35.2600    23.1680 o          1 I81      -0.608100
     16 N2          -7.5600    33.7070    21.6810 nt         1 I81      -0.610000
     17 C14         -2.7260    33.0440    16.5000 ca         1 I81      -0.124000
     18 H2           1.0730    33.0930    17.3570 ha         1 I81       0.111000
     19 H3          -0.3680    35.0070    18.0100 ha         1 I81       0.112000
     20 H4          -2.4470    36.1400    17.9640 h1         1 I81       0.039700
     21 H5          -3.5530    35.7010    16.6640 h1         1 I81       0.039700
     22 H6          -2.8670    33.6270    19.6870 h1         1 I81       0.036200
     23 H7          -2.9390    35.2720    20.3350 h1         1 I81       0.036200
     24 H8          -5.1250    36.0190    21.6230 hc         1 I81       0.078700
     25 H9          -2.4400    29.0300    14.5440 h1         1 I81       0.039700
     26 H10         -0.9790    30.0210    14.3440 h1         1 I81       0.039700
     27 H11         -1.3230    29.2350    15.9090 h1         1 I81       0.039700
     28 H12          0.1140    31.1520    16.1670 ha         1 I81       0.116000
     29 H13         -5.1720    33.1620    20.4120 hc         1 I81       0.050700
     30 H14         -4.1920    33.6850    21.7760 hc         1 I81       0.050700
     31 H15         -6.9030    36.4940    19.9040 hc         1 I81       0.050700
     32 H16         -6.8000    34.8490    19.2870 hc         1 I81       0.050700
     33 H17         -4.5610    36.9530    19.2190 h1         1 I81       0.036200
     34 H18         -5.5240    36.3910    17.8440 h1         1 I81       0.036200
     35 H19         -8.3060    33.3860    22.2790 hn         1 I81       0.313000
     36 H20         -7.3940    33.2710    20.7860 hn         1 I81       0.313000
     37 H21         -3.7860    33.0260    16.2650 ha         1 I81       0.137000
     38 O1          -2.5150    30.9030    15.4680 os         1 I81      -0.343100
@<TRIPOS>BOND
     1     1     5 1   
     2     1     6 1   
     3     1    14 1   
     4     2     3 ar  
     5     2    11 ar  
     6     2    18 1   
     7     3     4 ar  
     8     3    19 1   
     9     4     5 1   
    10     4    17 ar  
    11     5    20 1   
    12     5    21 1   
    13     6    12 1   
    14     6    22 1   
    15     6    23 1   
    16     7     8 1   
    17     7    12 1   
    18     7    13 1   
    19     7    24 1   
    20     8    15 2   
    21     8    16 1   
    22     9    25 1   
    23     9    26 1   
    24     9    27 1   
    25     9    38 1   
    26    10    11 ar  
    27    10    17 ar  
    28    10    38 1   
    29    11    28 1   
    30    12    29 1   
    31    12    30 1   
    32    13    14 1   
    33    13    31 1   
    34    13    32 1   
    35    14    33 1   
    36    14    34 1   
    37    16    35 1   
    38    16    36 1   
    39    17    37 1   
@<TRIPOS>SUBSTRUCTURE
     1 I81         1 TEMP              0 ****  ****    0 ROOT
