@<TRIPOS>MOLECULE
I81
   38    39     1     0     0
SMALL
abcg2


@<TRIPOS>ATOM
      1 N1          -4.0540    34.9290    18.6120 n3         1 I81      -0.717600
      2 C4           0.0120    33.1300    16.9720 ca         1 I81      -0.075000
      3 C5          -0.7530    34.1990    17.4140 ca         1 I81      -0.146000
      4 C6          -2.1380    34.1660    17.2700 ca         1 I81      -0.052300
      5 C7          -2.9890    35.3280    17.7130 c3         1 I81       0.211100
      6 C8          -3.5260    34.4910    19.8920 c6         1 I81       0.164300
      7 C10         -5.6720    35.1020    21.0190 c6         1 I81      -0.155700
      8 C13         -6.7900    34.7080    21.9650 c          1 I81       0.610100
      9 C1          -1.9170    29.8500    15.1990 c3         1 I81       0.149900
     10 C2          -1.9670    31.9830    16.2410 ca         1 I81       0.135100
     11 C3          -0.5800    32.0200    16.3840 ca         1 I81      -0.196000
     12 C9          -4.6300    34.0000    20.8140 c6         1 I81      -0.067400
     13 C11         -6.1870    35.5570    19.6510 c6         1 I81      -0.067400
     14 C12         -5.0260    35.9960    18.7750 c6         1 I81       0.164300
     15 O2          -7.0100    35.3260    22.9980 o          1 I81      -0.608100
     16 N2          -7.5240    33.6450    21.5950 nt         1 I81      -0.610000
     17 C14         -2.7360    33.0560    16.6900 ca         1 I81      -0.124000
     18 H2           1.0880    33.1540    17.0860 ha         1 I81       0.111000
     19 H3          -0.2780    35.0560    17.8750 ha         1 I81       0.112000
     20 H4          -2.3450    36.1030    18.1610 h1         1 I81       0.039700
     21 H5          -3.4480    35.7830    16.8300 h1         1 I81       0.039700
     22 H6          -2.8100    33.6850    19.7210 h1         1 I81       0.036200
     23 H7          -2.9700    35.3060    20.3910 h1         1 I81       0.036200
     24 H8          -5.1700    35.9540    21.4890 hc         1 I81       0.078700
     25 H9          -2.6480    29.1550    14.7920 h1         1 I81       0.039700
     26 H10         -1.2190    30.1290    14.4050 h1         1 I81       0.039700
     27 H11         -1.3610    29.3460    15.9940 h1         1 I81       0.039700
     28 H12          0.0460    31.2030    16.0500 ha         1 I81       0.116000
     29 H13         -5.0930    33.1110    20.3760 hc         1 I81       0.050700
     30 H14         -4.1940    33.6990    21.7690 hc         1 I81       0.050700
     31 H15         -6.8900    36.3860    19.7610 hc         1 I81       0.050700
     32 H16         -6.7220    34.7420    19.1550 hc         1 I81       0.050700
     33 H17         -4.5650    36.9000    19.2120 h1         1 I81       0.036200
     34 H18         -5.3990    36.2790    17.7880 h1         1 I81       0.036200
     35 H19         -8.2940    33.3330    22.1640 hn         1 I81       0.313000
     36 H20         -7.3570    33.1470    20.7370 hn         1 I81       0.313000
     37 H21         -3.8140    33.0170    16.5840 ha         1 I81       0.137000
     38 O1          -2.6430    30.9610    15.6810 os         1 I81      -0.343100
@<TRIPOS>BOND
     1     1     5 1   
     2     1     6 1   
     3     1    14 1   
     4     2     3 ar  
     5     2    11 ar  
     6     2    18 1   
     7     3     4 ar  
     8     3    19 1   
     9     4     5 1   
    10     4    17 ar  
    11     5    20 1   
    12     5    21 1   
    13     6    12 1   
    14     6    22 1   
    15     6    23 1   
    16     7     8 1   
    17     7    12 1   
    18     7    13 1   
    19     7    24 1   
    20     8    15 2   
    21     8    16 1   
    22     9    25 1   
    23     9    26 1   
    24     9    27 1   
    25     9    38 1   
    26    10    11 ar  
    27    10    17 ar  
    28    10    38 1   
    29    11    28 1   
    30    12    29 1   
    31    12    30 1   
    32    13    14 1   
    33    13    31 1   
    34    13    32 1   
    35    14    33 1   
    36    14    34 1   
    37    16    35 1   
    38    16    36 1   
    39    17    37 1   
@<TRIPOS>SUBSTRUCTURE
     1 I81         1 TEMP              0 ****  ****    0 ROOT
