@<TRIPOS>MOLECULE
I82
   28    30     1     0     0
SMALL
No Charge or Current Charge


@<TRIPOS>ATOM
      1 C10         23.4750   -23.4310    12.1780 ca         1 I82      -0.100000
      2 C01         13.8040   -26.5800    10.8320 c3         1 I82       0.224100
      3 C03         16.2630   -25.9170    11.1650 ca         1 I82       0.430900
      4 C04         17.2450   -24.9080    11.1230 ca         1 I82      -0.203000
      5 C05         18.5270   -25.2600    11.4720 ca         1 I82      -0.053000
      6 C06         19.2990   -24.0650    11.3600 cc         1 I82      -0.036300
      7 C07         20.7270   -23.8580    11.6430 ca         1 I82      -0.031800
      8 C08         21.6550   -24.9170    11.5390 ca         1 I82      -0.089500
      9 C09         23.0200   -24.7050    11.8060 ca         1 I82      -0.111000
     10 C11         22.5650   -22.3680    12.2790 ca         1 I82      -0.111000
     11 C12         21.2010   -22.5790    12.0110 ca         1 I82      -0.089500
     12 C16         17.8750   -27.3980    11.8840 ca         1 I82       0.156900
     13 N13         18.4100   -23.0690    10.9590 na         1 I82       0.017500
     14 N14         17.1050   -23.5550    10.7850 nc         1 I82      -0.259400
     15 N15         18.8840   -26.4930    11.8740 nb         1 I82      -0.177000
     16 N17         16.5800   -27.1740    11.5460 nb         1 I82      -0.299000
     17 H1          24.5310   -23.2680    12.3840 ha         1 I82       0.115000
     18 H2          12.8850   -26.0690    10.5140 h1         1 I82       0.044367
     19 H3          13.9880   -27.4170    10.1450 h1         1 I82       0.044367
     20 H4          13.6420   -26.9860    11.8400 h1         1 I82       0.044367
     21 H5          21.3320   -25.9080    11.2340 ha         1 I82       0.122500
     22 H6          23.7240   -25.5300    11.7200 ha         1 I82       0.115500
     23 H7          22.9150   -21.3790    12.5670 ha         1 I82       0.115500
     24 H8          20.5140   -21.7420    12.1060 ha         1 I82       0.122500
     25 H9          18.1300   -28.4080    12.1970 h5         1 I82       0.041100
     26 H10         14.7690   -24.6760    10.5550 hn         1 I82       0.510000
     27 H11         18.6310   -22.0940    10.7830 hn         1 I82       0.376000
     28 N02         14.9440   -25.6450    10.8270 nu         1 I82      -0.917100
@<TRIPOS>BOND
     1     1     9 ar  
     2     1    10 ar  
     3     1    17 1   
     4     2    18 1   
     5     2    19 1   
     6     2    20 1   
     7     2    28 1   
     8     3     4 ar  
     9     3    16 ar  
    10     3    28 1   
    11     4     5 ar  
    12     4    14 2   
    13     5     6 2   
    14     5    15 ar  
    15     6     7 1   
    16     6    13 1   
    17     7     8 ar  
    18     7    11 ar  
    19     8     9 ar  
    20     8    21 1   
    21     9    22 1   
    22    10    11 ar  
    23    10    23 1   
    24    11    24 1   
    25    12    15 ar  
    26    12    16 ar  
    27    12    25 1   
    28    13    14 1   
    29    13    27 1   
    30    26    28 1   
@<TRIPOS>SUBSTRUCTURE
     1 I82         1 TEMP              0 ****  ****    0 ROOT
