@<TRIPOS>MOLECULE
I82
   28    30     1     0     0
SMALL
abcg2


@<TRIPOS>ATOM
      1 C10         23.4400   -23.4170    12.1390 ca         1 I82      -0.100000
      2 C01         13.9020   -26.5670    10.8310 c3         1 I82       0.224100
      3 C03         16.2190   -25.8740    11.1620 ca         1 I82       0.430900
      4 C04         17.2440   -24.8780    11.1450 ca         1 I82      -0.203000
      5 C05         18.5420   -25.2810    11.5050 ca         1 I82      -0.053000
      6 C06         19.3090   -24.1160    11.4050 cc         1 I82      -0.036300
      7 C07         20.7200   -23.8620    11.6610 ca         1 I82      -0.031800
      8 C08         21.6370   -24.9130    11.5790 ca         1 I82      -0.089500
      9 C09         22.9840   -24.6890    11.8180 ca         1 I82      -0.111000
     10 C11         22.5340   -22.3680    12.2270 ca         1 I82      -0.111000
     11 C12         21.1850   -22.5870    11.9950 ca         1 I82      -0.089500
     12 C16         17.8370   -27.3610    11.8450 ca         1 I82       0.156900
     13 N13         18.4270   -23.1730    11.0080 na         1 I82       0.017500
     14 N14         17.1850   -23.5860    10.8390 nc         1 I82      -0.259400
     15 N15         18.8580   -26.5500    11.8690 nb         1 I82      -0.177000
     16 N17         16.5540   -27.1030    11.5150 nb         1 I82      -0.299000
     17 H1          24.4920   -23.2440    12.3210 ha         1 I82       0.115000
     18 H2          12.9790   -26.0680    10.5520 h1         1 I82       0.044367
     19 H3          14.0960   -27.3660    10.1150 h1         1 I82       0.044367
     20 H4          13.7710   -27.0160    11.8150 h1         1 I82       0.044367
     21 H5          21.2950   -25.9070    11.3250 ha         1 I82       0.122500
     22 H6          23.6820   -25.5130    11.7470 ha         1 I82       0.115500
     23 H7          22.8760   -21.3750    12.4860 ha         1 I82       0.115500
     24 H8          20.4960   -21.7570    12.0940 ha         1 I82       0.122500
     25 H9          18.0310   -28.3920    12.1270 h5         1 I82       0.041100
     26 H10         14.7440   -24.6420    10.5650 hn         1 I82       0.510000
     27 H11         18.6410   -22.2070    10.8040 hn         1 I82       0.376000
     28 N02         14.9620   -25.5870    10.8340 nu         1 I82      -0.917100
@<TRIPOS>BOND
     1     1     9 ar  
     2     1    10 ar  
     3     1    17 1   
     4     2    18 1   
     5     2    19 1   
     6     2    20 1   
     7     2    28 1   
     8     3     4 ar  
     9     3    16 ar  
    10     3    28 1   
    11     4     5 ar  
    12     4    14 2   
    13     5     6 2   
    14     5    15 ar  
    15     6     7 1   
    16     6    13 1   
    17     7     8 ar  
    18     7    11 ar  
    19     8     9 ar  
    20     8    21 1   
    21     9    22 1   
    22    10    11 ar  
    23    10    23 1   
    24    11    24 1   
    25    12    15 ar  
    26    12    16 ar  
    27    12    25 1   
    28    13    14 1   
    29    13    27 1   
    30    26    28 1   
@<TRIPOS>SUBSTRUCTURE
     1 I82         1 TEMP              0 ****  ****    0 ROOT
