@<TRIPOS>MOLECULE
I84
   48    49     1     0     0
SMALL
bcc


@<TRIPOS>ATOM
      1 C1           0.1360    -0.7990     7.2690 ca         1 I84      -0.130000
      2 C2          -0.3770    -0.2100     6.1160 ca         1 I84      -0.054300
      3 C3           0.4210     0.7030     5.4150 ca         1 I84      -0.064300
      4 C4           1.6980     0.9950     5.8790 ca         1 I84      -0.109000
      5 C5           2.2010     0.3990     7.0280 ca         1 I84      -0.132000
      6 C6           1.4130    -0.5040     7.7260 ca         1 I84      -0.123000
      7 C11         -1.7630    -0.5520     5.6490 c3         1 I84      -0.051800
      8 C15         -0.0810     1.3640     4.1670 c3         1 I84      -0.119100
      9 C16          0.0430     0.4770     2.9390 c          1 I84       0.673100
     10 N19         -0.5740     1.0040     1.8430 ns         1 I84      -0.477100
     11 C20         -0.6350     0.5190     0.5430 ca         1 I84       0.113600
     12 O21          0.6450    -0.5760     2.9420 o          1 I84      -0.559100
     13 C22         -0.0440    -0.6620     0.1100 ca         1 I84      -0.213500
     14 C23         -0.1530    -1.0870    -1.2130 ca         1 I84       0.062700
     15 C24         -0.8860    -0.3010    -2.1190 ca         1 I84      -0.265500
     16 C25         -1.4620     0.9190    -1.7070 ca         1 I84       0.062700
     17 C26         -1.3270     1.2960    -0.3840 ca         1 I84      -0.213500
     18 C29         -2.2140     1.8660    -2.6020 c3         1 I84      -0.067800
     19 C33          0.5650    -2.3720    -1.5360 c3         1 I84      -0.067800
     20 S37         -1.1070    -0.7860    -3.8200 sy         1 I84       1.282200
     21 N38         -0.1340     0.2790    -4.5980 n7         1 I84      -0.816100
     22 C39          1.3090     0.1270    -4.5140 c3         1 I84       0.035800
     23 C40          1.9810     0.8690    -5.6940 c          1 I84       0.936600
     24 O43          3.2080     1.0230    -5.5950 o          1 I84      -0.824300
     25 O44          1.2370     1.2080    -6.6330 o          1 I84      -0.824300
     26 O45         -0.6670    -2.1650    -3.9970 o          1 I84      -0.652300
     27 O46         -2.4690    -0.4920    -4.2470 o          1 I84      -0.652300
     28 H1          -0.4780    -1.5030     7.8180 ha         1 I84       0.125000
     29 H4           2.3110     1.7030     5.3340 ha         1 I84       0.129000
     30 H5           3.1990     0.6390     7.3720 ha         1 I84       0.129000
     31 H6           1.7870    -0.9760     8.6260 ha         1 I84       0.126000
     32 H111        -2.4070     0.3280     5.6120 hc         1 I84       0.043367
     33 H112        -1.7610    -0.9890     4.6490 hc         1 I84       0.043367
     34 H113        -2.2330    -1.2720     6.3170 hc         1 I84       0.043367
     35 H151        -1.1200     1.6870     4.2760 hc         1 I84       0.063200
     36 H152         0.4910     2.2760     3.9660 hc         1 I84       0.063200
     37 H19         -1.0440     1.8850     1.9880 hn         1 I84       0.310500
     38 H22          0.5220    -1.2690     0.7950 ha         1 I84       0.137000
     39 H26         -1.7720     2.2310    -0.0630 ha         1 I84       0.137000
     40 H291        -3.1970     1.4800    -2.8620 hc         1 I84       0.060367
     41 H292        -2.3560     2.8160    -2.0900 hc         1 I84       0.060367
     42 H293        -1.6830     2.0650    -3.5310 hc         1 I84       0.060367
     43 H331        -0.1270    -3.1760    -1.7760 hc         1 I84       0.060367
     44 H332         1.2500    -2.2690    -2.3750 hc         1 I84       0.060367
     45 H333         1.1470    -2.6830    -0.6710 hc         1 I84       0.060367
     46 H38         -0.4320     0.4780    -5.5520 hn         1 I84       0.466800
     47 H391         1.6750     0.5270    -3.5670 h1         1 I84       0.035700
     48 H392         1.6210    -0.9230    -4.5670 h1         1 I84       0.035700
@<TRIPOS>BOND
     1     1     2 ar  
     2     1     6 ar  
     3     1    28 1   
     4     2     3 ar  
     5     2     7 1   
     6     3     4 ar  
     7     3     8 1   
     8     4     5 ar  
     9     4    29 1   
    10     5     6 ar  
    11     5    30 1   
    12     6    31 1   
    13     7    32 1   
    14     7    33 1   
    15     7    34 1   
    16     8     9 1   
    17     8    35 1   
    18     8    36 1   
    19     9    10 1   
    20     9    12 2   
    21    10    11 1   
    22    10    37 1   
    23    11    13 ar  
    24    11    17 ar  
    25    13    14 ar  
    26    13    38 1   
    27    14    15 ar  
    28    14    19 1   
    29    15    16 ar  
    30    15    20 1   
    31    16    17 ar  
    32    16    18 1   
    33    17    39 1   
    34    18    40 1   
    35    18    41 1   
    36    18    42 1   
    37    19    43 1   
    38    19    44 1   
    39    19    45 1   
    40    20    21 1   
    41    20    26 2   
    42    20    27 2   
    43    21    22 1   
    44    21    46 1   
    45    22    23 1   
    46    22    47 1   
    47    22    48 1   
    48    23    24 1   
    49    23    25 1   
@<TRIPOS>SUBSTRUCTURE
     1 I84         1 TEMP              0 ****  ****    0 ROOT
