@<TRIPOS>MOLECULE
I84
   48    49     1     0     0
SMALL
No Charge or Current Charge


@<TRIPOS>ATOM
      1 C1          -1.0700    -0.1970     6.7510 ca         1 I84      -0.112000
      2 C2          -0.6620     0.5450     5.6220 ca         1 I84      -0.054300
      3 C3           0.7220     0.6530     5.3230 ca         1 I84      -0.064300
      4 C4           1.6600     0.0150     6.1610 ca         1 I84      -0.091000
      5 C5           1.2410    -0.7190     7.2810 ca         1 I84      -0.114000
      6 C6          -0.1250    -0.8250     7.5770 ca         1 I84      -0.105000
      7 C11         -1.7330     1.2050     4.7570 c3         1 I84      -0.051800
      8 C15          1.2430     1.4360     4.1130 c3         1 I84      -0.119100
      9 C16          1.3140     0.5470     2.8630 c          1 I84       0.606100
     10 N19          0.3540     0.8370     1.9020 ns         1 I84      -0.151000
     11 C20          0.0740     0.2810     0.6250 ca         1 I84       0.021000
     12 O21          2.1570    -0.3370     2.7560 o          1 I84      -0.559100
     13 C22          0.8950    -0.6550    -0.0180 ca         1 I84      -0.195500
     14 C23          0.5700    -1.1740    -1.2870 ca         1 I84       0.062700
     15 C24         -0.6240    -0.7470    -1.9470 ca         1 I84      -0.265500
     16 C25         -1.4460     0.2240    -1.2970 ca         1 I84       0.062700
     17 C26         -1.0840     0.7130    -0.0280 ca         1 I84      -0.195500
     18 C29         -2.7310     0.7980    -1.8990 c3         1 I84      -0.067800
     19 C33          1.5590    -2.1850    -1.8690 c3         1 I84      -0.067800
     20 S37         -1.1130    -1.3890    -3.5960 sy         1 I84       1.140600
     21 N38         -0.8280    -0.0770    -4.5850 n7         1 I84      -0.871300
     22 C39          0.3980     0.7570    -4.3450 c3         1 I84       0.035800
     23 C40          0.7540     1.7560    -5.5010 c          1 I84       0.726000
     24 O43          0.8890     2.9430    -5.2300 o          1 I84      -0.719000
     25 O44          0.8490     1.3100    -6.6380 o          1 I84      -0.719000
     26 O45         -0.1990    -2.4170    -4.0920 o          1 I84      -0.581500
     27 O46         -2.5640    -1.5810    -3.6430 o          1 I84      -0.581500
     28 H1          -2.1260    -0.2890     6.9920 ha         1 I84       0.107000
     29 H4           2.7230     0.0850     5.9410 ha         1 I84       0.111000
     30 H5           1.9760    -1.2070     7.9190 ha         1 I84       0.111000
     31 H6          -0.4520    -1.3940     8.4440 ha         1 I84       0.108000
     32 H111        -1.5870     2.2900     4.6970 hc         1 I84       0.043367
     33 H112        -1.7270     0.8000     3.7390 hc         1 I84       0.043367
     34 H113        -2.7390     1.0400     5.1600 hc         1 I84       0.043367
     35 H151         0.6090     2.3080     3.9180 hc         1 I84       0.063200
     36 H152         2.2560     1.7970     4.3250 hc         1 I84       0.063200
     37 H19         -0.2720     1.5890     2.1610 hn         1 I84       0.144000
     38 H22          1.8090    -0.9910     0.4590 ha         1 I84       0.119000
     39 H26         -1.7180     1.4470     0.4640 ha         1 I84       0.119000
     40 H291        -3.5430     0.0630    -1.8760 hc         1 I84       0.060367
     41 H292        -3.0840     1.6730    -1.3420 hc         1 I84       0.060367
     42 H293        -2.5910     1.1330    -2.9320 hc         1 I84       0.060367
     43 H331         1.0930    -3.1670    -2.0050 hc         1 I84       0.060367
     44 H332         1.9630    -1.8440    -2.8290 hc         1 I84       0.060367
     45 H333         2.4230    -2.3420    -1.2120 hc         1 I84       0.060367
     46 H38         -0.7170    -0.5640    -5.4750 hn         1 I84       0.522000
     47 H391         0.2870     1.3400    -3.4210 h1         1 I84       0.035700
     48 H392         1.2770     0.1110    -4.2170 h1         1 I84       0.035700
@<TRIPOS>BOND
     1     1     2 ar  
     2     1     6 ar  
     3     1    28 1   
     4     2     3 ar  
     5     2     7 1   
     6     3     4 ar  
     7     3     8 1   
     8     4     5 ar  
     9     4    29 1   
    10     5     6 ar  
    11     5    30 1   
    12     6    31 1   
    13     7    32 1   
    14     7    33 1   
    15     7    34 1   
    16     8     9 1   
    17     8    35 1   
    18     8    36 1   
    19     9    10 1   
    20     9    12 2   
    21    10    11 1   
    22    10    37 1   
    23    11    13 ar  
    24    11    17 ar  
    25    13    14 ar  
    26    13    38 1   
    27    14    15 ar  
    28    14    19 1   
    29    15    16 ar  
    30    15    20 1   
    31    16    17 ar  
    32    16    18 1   
    33    17    39 1   
    34    18    40 1   
    35    18    41 1   
    36    18    42 1   
    37    19    43 1   
    38    19    44 1   
    39    19    45 1   
    40    20    21 1   
    41    20    26 2   
    42    20    27 2   
    43    21    22 1   
    44    21    46 1   
    45    22    23 1   
    46    22    47 1   
    47    22    48 1   
    48    23    24 1   
    49    23    25 1   
@<TRIPOS>SUBSTRUCTURE
     1 I84         1 TEMP              0 ****  ****    0 ROOT
