@<TRIPOS>MOLECULE
I85
   56    60     1     0     0
SMALL
No Charge or Current Charge


@<TRIPOS>ATOM
      1 N1           2.3550    -0.3770     0.2130 ns         1 I85      -0.326900
      2 N2          -8.2700    -1.2560     1.1270 n7         1 I85      -0.853400
      3 C3          -8.6740    -1.7930    -0.1950 c6         1 I85       0.150800
      4 C4          -0.0760    -0.3100     0.1270 ca         1 I85      -0.210000
      5 N5           1.1750    -2.3790     0.2360 nb         1 I85      -0.674000
      6 N6          -3.8710    -0.8500     0.2540 na         1 I85      -0.077000
      7 C7          -6.3410     0.0480     0.1270 c6         1 I85      -0.037700
      8 N8          -6.1810     2.5810    -0.1690 ns         1 I85      -0.509900
      9 C9          -4.8220     2.6100    -0.3810 c          1 I85       0.605600
     10 C10         -6.7890    -0.4490    -1.2840 c6         1 I85      -0.065400
     11 C11         -8.2970    -0.8120    -1.3310 c6         1 I85      -0.115400
     12 C12         -6.8110    -0.9780     1.2070 c6         1 I85       0.163800
     13 O13         -4.2520     3.6310    -0.7310 o          1 I85      -0.560000
     14 C14         -4.8300     0.1600     0.1240 cc         1 I85      -0.110300
     15 C15         -4.1420     1.3170    -0.1310 cd         1 I85      -0.232600
     16 C16         -2.7570     1.0310    -0.1560 cd         1 I85      -0.071000
     17 C17         -2.5950    -0.3060     0.1010 cc         1 I85      -0.156000
     18 C18         -1.3020    -1.0000     0.1370 ca         1 I85       0.073000
     19 C19         -1.2440    -2.4030     0.1970 ca         1 I85      -0.215000
     20 C20          0.0020    -3.0470     0.2470 ca         1 I85       0.380900
     21 C21          1.1220    -1.0370     0.1500 ca         1 I85       0.493900
     22 C22         -6.9250     1.4650     0.4470 c6         1 I85       0.121000
     23 C23          3.5720    -0.7080    -0.3450 c          1 I85       0.623700
     24 C24          4.7270     0.2170    -0.0130 ca         1 I85      -0.163600
     25 C25          4.5740     1.3400     0.8350 ca         1 I85      -0.061000
     26 C26          5.6710     2.1680     1.1220 ca         1 I85      -0.124000
     27 C27          6.9310     1.8960     0.5700 ca         1 I85      -0.039000
     28 C28          7.1080     0.7880    -0.2840 ca         1 I85      -0.205300
     29 C29          6.0040    -0.0470    -0.5630 ca         1 I85      -0.010000
     30 O30          3.7200    -1.6740    -1.0850 o          1 I85      -0.519100
     31 C31          8.4800     0.4700    -0.8880 c3         1 I85       0.359300
     32 F32          9.2980     1.5470    -0.9240 f          1 I85      -0.110667
     33 F33          9.1180    -0.4870    -0.1780 f          1 I85      -0.110667
     34 F34          8.3820     0.0180    -2.1600 f          1 I85      -0.110667
     35 HN1          2.3380     0.4810     0.7450 hn         1 I85       0.156000
     36 H3          -8.1760    -2.7600    -0.3670 h1         1 I85       0.055700
     37 H3A         -9.7590    -1.9750    -0.2080 h1         1 I85       0.055700
     38 H4          -0.0350     0.7730     0.1040 ha         1 I85       0.126000
     39 HN6         -4.0720    -1.8300     0.4210 hn         1 I85       0.351000
     40 HN8         -6.6720     3.4480    -0.3470 hn         1 I85       0.317500
     41 H10         -6.5620     0.3100    -2.0460 hc         1 I85       0.055200
     42 H10A        -6.2050    -1.3390    -1.5600 hc         1 I85       0.055200
     43 H11         -8.5370    -1.2670    -2.3010 hc         1 I85       0.049200
     44 H11A        -8.9130     0.0940    -1.2610 hc         1 I85       0.049200
     45 H12         -6.5600    -0.6020     2.2110 h1         1 I85       0.054200
     46 H12A        -6.2680    -1.9260     1.0750 h1         1 I85       0.054200
     47 H16         -1.9740     1.7560    -0.3550 ha         1 I85       0.149000
     48 H19         -2.1480    -3.0040     0.2090 ha         1 I85       0.114000
     49 H20          0.0630    -4.1330     0.3040 h4         1 I85       0.025100
     50 H22         -7.9810     1.5370     0.1550 h1         1 I85       0.043700
     51 H22A        -6.8840     1.6270     1.5340 h1         1 I85       0.043700
     52 H25          3.6150     1.5850     1.2850 ha         1 I85       0.118000
     53 H26          5.5430     3.0250     1.7790 ha         1 I85       0.126000
     54 H27          7.7670     2.5500     0.8140 ha         1 I85       0.135000
     55 H29          6.1420    -0.9110    -1.2120 ha         1 I85       0.152000
     56 HN2         -8.7800    -0.3810     1.2920 hn         1 I85       0.412000
@<TRIPOS>BOND
     1     1    21 1   
     2     1    23 1   
     3     1    35 1   
     4     2     3 1   
     5     2    12 1   
     6     2    56 1   
     7     3    11 1   
     8     3    36 1   
     9     3    37 1   
    10     4    18 ar  
    11     4    21 ar  
    12     4    38 1   
    13     5    20 ar  
    14     5    21 ar  
    15     6    14 1   
    16     6    17 1   
    17     6    39 1   
    18     7    10 1   
    19     7    12 1   
    20     7    14 1   
    21     7    22 1   
    22     8     9 1   
    23     8    22 1   
    24     8    40 1   
    25     9    13 2   
    26     9    15 1   
    27    10    11 1   
    28    10    41 1   
    29    10    42 1   
    30    11    43 1   
    31    11    44 1   
    32    12    45 1   
    33    12    46 1   
    34    14    15 2   
    35    15    16 1   
    36    16    17 2   
    37    16    47 1   
    38    17    18 1   
    39    18    19 ar  
    40    19    20 ar  
    41    19    48 1   
    42    20    49 1   
    43    22    50 1   
    44    22    51 1   
    45    23    24 1   
    46    23    30 2   
    47    24    25 ar  
    48    24    29 ar  
    49    25    26 ar  
    50    25    52 1   
    51    26    27 ar  
    52    26    53 1   
    53    27    28 ar  
    54    27    54 1   
    55    28    29 ar  
    56    28    31 1   
    57    29    55 1   
    58    31    32 1   
    59    31    33 1   
    60    31    34 1   
@<TRIPOS>SUBSTRUCTURE
     1 I85         1 TEMP              0 ****  ****    0 ROOT
