@<TRIPOS>MOLECULE
I85
   56    60     1     0     0
SMALL
bcc


@<TRIPOS>ATOM
      1 N1           2.3110    -0.3990     0.0820 ns         1 I85      -0.560400
      2 N2          -8.0490    -1.4580     1.0150 n7         1 I85      -0.798200
      3 C3          -8.5020    -1.7590    -0.3340 c6         1 I85       0.150800
      4 C4          -0.0640    -0.3090     0.0750 ca         1 I85      -0.293300
      5 N5           1.0910    -2.4040     0.1290 nb         1 I85      -0.674000
      6 N6          -3.7730    -0.7390     0.1540 na         1 I85      -0.128100
      7 C7          -6.2120     0.0100     0.1200 c6         1 I85      -0.037700
      8 N8          -6.2040     2.4930    -0.0290 ns         1 I85      -0.576900
      9 C9          -4.8730     2.6570    -0.2160 c          1 I85       0.748100
     10 C10         -6.7000    -0.3080    -1.3090 c6         1 I85      -0.065400
     11 C11         -8.1840    -0.6610    -1.3430 c6         1 I85      -0.115400
     12 C12         -6.6400    -1.1360     1.0590 c6         1 I85       0.163800
     13 O13         -4.3690     3.7240    -0.5480 o          1 I85      -0.635500
     14 C14         -4.7320     0.2020     0.1110 cc         1 I85      -0.059600
     15 C15         -4.1090     1.4250    -0.0370 cd         1 I85      -0.232600
     16 C16         -2.7170     1.1980    -0.0790 cd         1 I85      -0.089000
     17 C17         -2.5270    -0.1600     0.0500 cc         1 I85      -0.105300
     18 C18         -1.3030    -0.9390     0.0810 ca         1 I85       0.073000
     19 C19         -1.3050    -2.3390     0.1180 ca         1 I85      -0.298300
     20 C20         -0.0960    -3.0020     0.1430 ca         1 I85       0.446200
     21 C21          1.0960    -1.0820     0.0970 ca         1 I85       0.559200
     22 C22         -6.7760     1.3400     0.6420 c6         1 I85       0.121000
     23 C23          3.5780    -0.8890     0.1970 c          1 I85       0.690700
     24 C24          4.6440     0.1650     0.2190 ca         1 I85      -0.163600
     25 C25          4.4480     1.4350     0.7560 ca         1 I85      -0.079000
     26 C26          5.4890     2.3490     0.7790 ca         1 I85      -0.142000
     27 C27          6.7310     2.0130     0.2610 ca         1 I85      -0.057000
     28 C28          6.9290     0.7450    -0.2700 ca         1 I85      -0.205300
     29 C29          5.8940    -0.1800    -0.2790 ca         1 I85      -0.028000
     30 O30          3.8690    -2.0640     0.2630 o          1 I85      -0.519100
     31 C31          8.2530     0.3330    -0.8360 c3         1 I85       0.723200
     32 F32          9.1560     1.3150    -0.8030 f          1 I85      -0.231967
     33 F33          8.7740    -0.7040    -0.1640 f          1 I85      -0.231967
     34 F34          8.1430    -0.0590    -2.1130 f          1 I85      -0.231967
     35 HN1          2.2230     0.5960    -0.0530 hn         1 I85       0.322500
     36 H3          -8.0170    -2.6900    -0.6500 h1         1 I85       0.055700
     37 H3A         -9.5750    -1.9590    -0.3060 h1         1 I85       0.055700
     38 H4           0.0100     0.7710     0.0620 ha         1 I85       0.144000
     39 HN6         -3.9430    -1.7260     0.2670 hn         1 I85       0.300700
     40 HN8         -6.7780     3.3190    -0.0960 hn         1 I85       0.317500
     41 H10         -6.4890     0.5340    -1.9730 hc         1 I85       0.055200
     42 H10A        -6.1210    -1.1570    -1.6890 hc         1 I85       0.055200
     43 H11         -8.4590    -0.9850    -2.3500 hc         1 I85       0.049200
     44 H11A        -8.7930     0.2230    -1.1280 hc         1 I85       0.049200
     45 H12         -6.3560    -0.8990     2.0880 h1         1 I85       0.054200
     46 H12A        -6.0920    -2.0440     0.7810 h1         1 I85       0.054200
     47 H16         -1.9470     1.9460    -0.1900 ha         1 I85       0.167000
     48 H19         -2.2150    -2.9230     0.1220 ha         1 I85       0.132000
     49 H20         -0.0810    -4.0850     0.1710 h4         1 I85       0.025100
     50 H22         -7.8540     1.3850     0.5020 h1         1 I85       0.043700
     51 H22A        -6.5910     1.3960     1.7220 h1         1 I85       0.043700
     52 H25          3.4970     1.7210     1.1880 ha         1 I85       0.136000
     53 H26          5.3350     3.3300     1.2080 ha         1 I85       0.144000
     54 H27          7.5280     2.7420     0.2830 ha         1 I85       0.153000
     55 H29          6.0460    -1.1750    -0.6790 ha         1 I85       0.170000
     56 HN2         -8.5980    -0.7010     1.4040 hn         1 I85       0.356800
@<TRIPOS>BOND
     1     1    21 1   
     2     1    23 1   
     3     1    35 1   
     4     2     3 1   
     5     2    12 1   
     6     2    56 1   
     7     3    11 1   
     8     3    36 1   
     9     3    37 1   
    10     4    18 ar  
    11     4    21 ar  
    12     4    38 1   
    13     5    20 ar  
    14     5    21 ar  
    15     6    14 1   
    16     6    17 1   
    17     6    39 1   
    18     7    10 1   
    19     7    12 1   
    20     7    14 1   
    21     7    22 1   
    22     8     9 1   
    23     8    22 1   
    24     8    40 1   
    25     9    13 2   
    26     9    15 1   
    27    10    11 1   
    28    10    41 1   
    29    10    42 1   
    30    11    43 1   
    31    11    44 1   
    32    12    45 1   
    33    12    46 1   
    34    14    15 2   
    35    15    16 1   
    36    16    17 2   
    37    16    47 1   
    38    17    18 1   
    39    18    19 ar  
    40    19    20 ar  
    41    19    48 1   
    42    20    49 1   
    43    22    50 1   
    44    22    51 1   
    45    23    24 1   
    46    23    30 2   
    47    24    25 ar  
    48    24    29 ar  
    49    25    26 ar  
    50    25    52 1   
    51    26    27 ar  
    52    26    53 1   
    53    27    28 ar  
    54    27    54 1   
    55    28    29 ar  
    56    28    31 1   
    57    29    55 1   
    58    31    32 1   
    59    31    33 1   
    60    31    34 1   
@<TRIPOS>SUBSTRUCTURE
     1 I85         1 TEMP              0 ****  ****    0 ROOT
