@<TRIPOS>MOLECULE
I87
   35    35     1     0     0
SMALL
No Charge or Current Charge


@<TRIPOS>ATOM
      1 N1          11.6590    16.6790    22.9590 n3         1 I87      -0.772500
      2 C4          11.2700    15.2610    22.8060 c3         1 I87       0.199100
      3 C5          11.2340    19.2760    24.5140 c6         1 I87       0.162800
      4 C6          11.2650    20.8300    24.4430 c6         1 I87       0.157600
      5 C7          13.5350    20.8640    25.2480 c6         1 I87       0.166300
      6 C8          14.4120    21.5300    26.3340 c3         1 I87      -0.091100
      7 C2          11.9890    17.3950    21.6950 c3         1 I87       0.231500
      8 C3          10.7280    17.6350    20.8350 c3         1 I87      -0.103600
      9 S1          12.6560    16.9790    24.3270 s6         1 I87       1.290200
     10 O1          14.0170    16.5510    23.9950 o          1 I87      -0.563000
     11 O2          11.9640    16.5120    25.5300 o          1 I87      -0.563000
     12 N2          12.6010    18.6910    24.3640 n3         1 I87      -0.757500
     13 O3          12.1880    21.3610    25.4230 os         1 I87      -0.448000
     14 C9          13.5500    19.3060    25.3350 c6         1 I87       0.172800
     15 H1          10.8200    14.8780    23.7310 h1         1 I87       0.049367
     16 H2          10.5310    15.1280    22.0070 h1         1 I87       0.049367
     17 H3          12.1430    14.6360    22.5730 h1         1 I87       0.049367
     18 H5          10.7920    18.9810    25.4780 h1         1 I87       0.062700
     19 H6          11.5780    21.1510    23.4390 h1         1 I87       0.051700
     20 H7          10.2620    21.2350    24.6350 h1         1 I87       0.051700
     21 H8          13.9020    21.1760    24.2590 h1         1 I87       0.042700
     22 H9          14.3830    22.6220    26.2470 hc         1 I87       0.047367
     23 H10         14.0720    21.2620    27.3410 hc         1 I87       0.047367
     24 H11         15.4580    21.2170    26.2390 hc         1 I87       0.047367
     25 H12         14.0310    16.6250    21.4180 hc         1 I87       0.043700
     26 H13         12.7970    15.7360    20.4990 hc         1 I87       0.043700
     27 H14         13.3240    17.3410    19.9670 hc         1 I87       0.043700
     28 H15         12.3570    18.4020    21.9330 h1         1 I87       0.063700
     29 H16          9.9360    18.0970    21.4350 hc         1 I87       0.043700
     30 H17         10.9570    18.3090    20.0020 hc         1 I87       0.043700
     31 H18         10.3430    16.6990    20.4150 hc         1 I87       0.043700
     32 H19         13.2950    19.0050    26.3630 h1         1 I87       0.066700
     33 H20         14.5760    18.9580    25.1440 h1         1 I87       0.066700
     34 H4          10.5560    18.9120    23.7300 h1         1 I87       0.062700
     35 C1          13.1020    16.7290    20.8490 c3         1 I87      -0.103600
@<TRIPOS>BOND
     1     1     2 1   
     2     1     7 1   
     3     1     9 1   
     4     2    15 1   
     5     2    16 1   
     6     2    17 1   
     7     3     4 1   
     8     3    12 1   
     9     3    18 1   
    10     3    34 1   
    11     4    13 1   
    12     4    19 1   
    13     4    20 1   
    14     5     6 1   
    15     5    13 1   
    16     5    14 1   
    17     5    21 1   
    18     6    22 1   
    19     6    23 1   
    20     6    24 1   
    21     7     8 1   
    22     7    28 1   
    23     7    35 1   
    24     8    29 1   
    25     8    30 1   
    26     8    31 1   
    27     9    10 2   
    28     9    11 2   
    29     9    12 1   
    30    12    14 1   
    31    14    32 1   
    32    14    33 1   
    33    25    35 1   
    34    26    35 1   
    35    27    35 1   
@<TRIPOS>SUBSTRUCTURE
     1 I87         1 TEMP              0 ****  ****    0 ROOT
