@<TRIPOS>MOLECULE
I87
   35    35     1     0     0
SMALL
bcc


@<TRIPOS>ATOM
      1 N1          11.8140    16.7670    22.9340 n3         1 I87      -0.772500
      2 C4          11.0950    15.5140    22.7400 c3         1 I87       0.199100
      3 C5          11.1060    19.0000    24.9550 c6         1 I87       0.162800
      4 C6          11.0070    20.4920    24.7070 c6         1 I87       0.134400
      5 C7          13.3030    20.7910    25.0360 c6         1 I87       0.143100
      6 C8          14.3020    21.6140    25.8210 c3         1 I87      -0.091100
      7 C2          12.3680    17.4340    21.7400 c3         1 I87       0.231500
      8 C3          11.2480    18.1210    20.9710 c3         1 I87      -0.103600
      9 S1          12.6510    16.9490    24.3330 s6         1 I87       1.431800
     10 O1          14.0820    16.7360    24.1690 o          1 I87      -0.633800
     11 O2          11.9650    16.1520    25.3400 o          1 I87      -0.633800
     12 N2          12.4500    18.5700    24.5800 n3         1 I87      -0.757500
     13 O3          12.0020    21.1990    25.4080 os         1 I87      -0.401600
     14 C9          13.4980    19.3010    25.2910 c6         1 I87       0.172800
     15 H1          10.4080    15.3350    23.5620 h1         1 I87       0.049367
     16 H2          10.4970    15.6060    21.8350 h1         1 I87       0.049367
     17 H3          11.7490    14.6480    22.6250 h1         1 I87       0.049367
     18 H5          10.8980    18.7730    26.0070 h1         1 I87       0.062700
     19 H6          11.0780    20.6840    23.6280 h1         1 I87       0.051700
     20 H7          10.0390    20.8580    25.0530 h1         1 I87       0.051700
     21 H8          13.4470    20.9660    23.9580 h1         1 I87       0.042700
     22 H9          14.1700    22.6780    25.6230 hc         1 I87       0.047367
     23 H10         14.1960    21.4470    26.8940 hc         1 I87       0.047367
     24 H11         15.3180    21.3450    25.5340 hc         1 I87       0.047367
     25 H12         13.9730    16.0050    21.4250 hc         1 I87       0.043700
     26 H13         12.5520    15.7180    20.4100 hc         1 I87       0.043700
     27 H14         13.6380    17.0530    20.0470 hc         1 I87       0.043700
     28 H15         13.0340    18.2210    22.0980 h1         1 I87       0.063700
     29 H16         10.7130    18.8230    21.6100 hc         1 I87       0.043700
     30 H17         11.6650    18.6770    20.1310 hc         1 I87       0.043700
     31 H18         10.5300    17.4080    20.5640 hc         1 I87       0.043700
     32 H19         13.4670    19.1000    26.3690 h1         1 I87       0.066700
     33 H20         14.4740    19.0070    24.9130 h1         1 I87       0.066700
     34 H4          10.3670    18.4860    24.3400 h1         1 I87       0.062700
     35 C1          13.1780    16.4900    20.8600 c3         1 I87      -0.103600
@<TRIPOS>BOND
     1     1     2 1   
     2     1     7 1   
     3     1     9 1   
     4     2    15 1   
     5     2    16 1   
     6     2    17 1   
     7     3     4 1   
     8     3    12 1   
     9     3    18 1   
    10     3    34 1   
    11     4    13 1   
    12     4    19 1   
    13     4    20 1   
    14     5     6 1   
    15     5    13 1   
    16     5    14 1   
    17     5    21 1   
    18     6    22 1   
    19     6    23 1   
    20     6    24 1   
    21     7     8 1   
    22     7    28 1   
    23     7    35 1   
    24     8    29 1   
    25     8    30 1   
    26     8    31 1   
    27     9    10 2   
    28     9    11 2   
    29     9    12 1   
    30    12    14 1   
    31    14    32 1   
    32    14    33 1   
    33    25    35 1   
    34    26    35 1   
    35    27    35 1   
@<TRIPOS>SUBSTRUCTURE
     1 I87         1 TEMP              0 ****  ****    0 ROOT
