@<TRIPOS>MOLECULE
I88
   70    70     1     0     0
SMALL
bcc


@<TRIPOS>ATOM
      1 C1         587.1990  -309.0170   586.5050 c3         1 I88       0.075100
      2 C10        587.5230  -309.0920   587.9950 c          1 I88       0.638100
      3 C13        587.9070  -310.5370   589.9170 c3         1 I88       0.038700
      4 C14        587.5050  -311.9550   590.3350 c3         1 I88      -0.088400
      5 C17        586.0210  -312.2880   590.1590 c3         1 I88      -0.058700
      6 C18        585.1150  -311.3100   590.8980 c3         1 I88      -0.090600
      7 C19        585.7740  -313.7170   590.6350 c3         1 I88      -0.090600
      8 C2         588.3850  -308.4500   585.7150 c3         1 I88       0.140500
      9 C20        589.3930  -310.3400   590.2160 c          1 I88       0.655100
     10 C23        591.0220  -310.0870   591.9960 c3         1 I88       0.061700
     11 C24        591.6420  -311.4520   591.7260 c          1 I88       0.635100
     12 C25        591.0060  -309.8370   593.5130 c3         1 I88      -0.032100
     13 C26        592.3720  -309.9340   594.1300 ca         1 I88      -0.130300
     14 C27        592.7860  -311.0910   594.7810 ca         1 I88      -0.076000
     15 C28        594.0640  -311.2070   595.3070 ca         1 I88      -0.192000
     16 C29        594.9630  -310.1510   595.1890 ca         1 I88       0.145100
     17 C30        594.5600  -308.9800   594.5480 ca         1 I88      -0.192000
     18 C31        593.2810  -308.8830   594.0290 ca         1 I88      -0.076000
     19 C35        593.6430  -312.5770   591.2290 c3         1 I88       0.129700
     20 C4         589.6150  -309.3430   585.8590 c3         1 I88      -0.081400
     21 C5         590.8530  -308.8020   585.1540 c3         1 I88      -0.070400
     22 C6         592.0930  -309.6400   585.4400 c3         1 I88      -0.084400
     23 C7         593.3170  -309.0990   584.7300 c3         1 I88       0.141400
     24 N12        587.6200  -310.3190   588.5250 ns         1 I88      -0.542900
     25 N22        589.6710  -310.0550   591.4990 ns         1 I88      -0.562900
     26 N3         587.9890  -308.3570   584.3180 n8         1 I88      -0.887800
     27 O11        587.6440  -308.0700   588.6570 o          1 I88      -0.615100
     28 O32        596.2200  -310.2000   595.6750 oh         1 I88      -0.493100
     29 O33        591.0460  -312.4900   591.8620 o          1 I88      -0.548000
     30 O34        592.9140  -311.3590   591.3890 os         1 I88      -0.395900
     31 O8         594.4290  -309.9160   585.0280 oh         1 I88      -0.598800
     32 O9         586.0330  -308.2470   586.3370 oh         1 I88      -0.581800
     33 H1         586.9660  -310.0100   586.1070 h1         1 I88       0.091700
     34 H2         587.3380  -309.8130   590.5060 h1         1 I88       0.082700
     35 H3         588.1090  -312.6750   589.7730 hc         1 I88       0.060200
     36 H4         587.7710  -312.0860   591.3880 hc         1 I88       0.060200
     37 H5         585.7730  -312.2450   589.0930 hc         1 I88       0.047700
     38 H6         584.0720  -311.6230   590.8270 hc         1 I88       0.036200
     39 H7         585.3750  -311.2590   591.9580 hc         1 I88       0.036200
     40 H8         585.1750  -310.3000   590.4900 hc         1 I88       0.036200
     41 H9         584.7350  -314.0100   590.4780 hc         1 I88       0.036200
     42 H10        586.4050  -314.4300   590.1020 hc         1 I88       0.036200
     43 H11        585.9890  -313.8160   591.7020 hc         1 I88       0.036200
     44 H12        588.6290  -307.4670   586.1540 h1         1 I88       0.031700
     45 H13        591.6250  -309.3140   591.5130 h1         1 I88       0.097700
     46 H14        590.5830  -308.8430   593.6800 hc         1 I88       0.058700
     47 H15        590.3310  -310.5580   593.9800 hc         1 I88       0.058700
     48 H16        592.1000  -311.9250   594.8810 ha         1 I88       0.134500
     49 H17        594.3590  -312.1210   595.8110 ha         1 I88       0.140500
     50 H18        595.2510  -308.1510   594.4610 ha         1 I88       0.140500
     51 H19        592.9840  -307.9660   593.5320 ha         1 I88       0.134500
     52 H20        594.6550  -312.2870   590.9640 h1         1 I88       0.048700
     53 H21        593.6610  -313.1490   592.1560 h1         1 I88       0.048700
     54 H22        593.2210  -313.1910   590.4340 h1         1 I88       0.048700
     55 H23        589.3790  -310.3410   585.4740 hc         1 I88       0.059200
     56 H24        589.8520  -309.4660   586.9190 hc         1 I88       0.059200
     57 H25        591.0280  -307.7690   585.4740 hc         1 I88       0.035200
     58 H26        590.6910  -308.7680   584.0720 hc         1 I88       0.035200
     59 H27        591.9180  -310.6730   585.1260 hc         1 I88       0.059200
     60 H28        592.2770  -309.6650   586.5190 hc         1 I88       0.059200
     61 H29        593.4870  -308.0600   585.0470 h1         1 I88       0.012700
     62 H30        593.1220  -309.0680   583.6490 h1         1 I88       0.012700
     63 H31        587.5820  -311.1210   587.9150 hn         1 I88       0.328500
     64 H32        588.9180  -309.9920   592.1670 hn         1 I88       0.322500
     65 H33        587.1650  -307.7740   584.2400 hn         1 I88       0.345300
     66 H34        588.7080  -307.8780   583.7920 hn         1 I88       0.345300
     67 H36        596.3890  -311.0540   596.0880 ho         1 I88       0.426000
     68 H37        595.1970  -309.5540   584.5770 ho         1 I88       0.401000
     69 H38        586.1860  -307.3800   586.7350 ho         1 I88       0.417000
     70 O21        590.2650  -310.4880   589.3770 o          1 I88      -0.590100
@<TRIPOS>BOND
     1     1     2 1   
     2     1     8 1   
     3     1    32 1   
     4     1    33 1   
     5     2    24 1   
     6     2    27 2   
     7     3     4 1   
     8     3     9 1   
     9     3    24 1   
    10     3    34 1   
    11     4     5 1   
    12     4    35 1   
    13     4    36 1   
    14     5     6 1   
    15     5     7 1   
    16     5    37 1   
    17     6    38 1   
    18     6    39 1   
    19     6    40 1   
    20     7    41 1   
    21     7    42 1   
    22     7    43 1   
    23     8    20 1   
    24     8    26 1   
    25     8    44 1   
    26     9    25 1   
    27     9    70 2   
    28    10    11 1   
    29    10    12 1   
    30    10    25 1   
    31    10    45 1   
    32    11    29 2   
    33    11    30 1   
    34    12    13 1   
    35    12    46 1   
    36    12    47 1   
    37    13    14 ar  
    38    13    18 ar  
    39    14    15 ar  
    40    14    48 1   
    41    15    16 ar  
    42    15    49 1   
    43    16    17 ar  
    44    16    28 1   
    45    17    18 ar  
    46    17    50 1   
    47    18    51 1   
    48    19    30 1   
    49    19    52 1   
    50    19    53 1   
    51    19    54 1   
    52    20    21 1   
    53    20    55 1   
    54    20    56 1   
    55    21    22 1   
    56    21    57 1   
    57    21    58 1   
    58    22    23 1   
    59    22    59 1   
    60    22    60 1   
    61    23    31 1   
    62    23    61 1   
    63    23    62 1   
    64    24    63 1   
    65    25    64 1   
    66    26    65 1   
    67    26    66 1   
    68    28    67 1   
    69    31    68 1   
    70    32    69 1   
@<TRIPOS>SUBSTRUCTURE
     1 I88         1 TEMP              0 ****  ****    0 ROOT
