@<TRIPOS>MOLECULE
I88
   70    70     1     0     0
SMALL
No Charge or Current Charge


@<TRIPOS>ATOM
      1 C1         587.4230  -309.7610   586.0540 c3         1 I88       0.098300
      2 C10        587.3050  -309.8870   587.6030 c          1 I88       0.571100
      3 C13        588.0860  -311.2210   589.6230 c3         1 I88       0.038700
      4 C14        587.2190  -312.4650   589.9700 c3         1 I88      -0.088400
      5 C17        585.6860  -312.3040   589.7590 c3         1 I88      -0.058700
      6 C18        585.0620  -311.2550   590.7100 c3         1 I88      -0.090600
      7 C19        584.9650  -313.6630   589.9050 c3         1 I88      -0.090600
      8 C2         588.3070  -308.5360   585.6500 c3         1 I88       0.140500
      9 C20        589.5670  -311.4280   590.0510 c          1 I88       0.588100
     10 C23        591.1240  -311.5440   592.0490 c3         1 I88       0.061700
     11 C24        590.9700  -312.0150   593.5190 c          1 I88       0.586100
     12 C25        591.9470  -310.2350   591.9500 c3         1 I88      -0.032100
     13 C26        593.3900  -310.4070   592.4080 ca         1 I88      -0.130300
     14 C27        593.8050  -309.9120   593.6610 ca         1 I88      -0.058000
     15 C28        595.1350  -310.0830   594.0840 ca         1 I88      -0.174000
     16 C29        596.0550  -310.7480   593.2580 ca         1 I88       0.145100
     17 C30        595.6470  -311.2420   592.0100 ca         1 I88      -0.174000
     18 C31        594.3180  -311.0730   591.5840 ca         1 I88      -0.058000
     19 C35        591.9870  -313.3590   595.2440 c3         1 I88       0.152900
     20 C4         589.7660  -308.6240   586.1820 c3         1 I88      -0.081400
     21 C5         590.6260  -307.3640   585.9130 c3         1 I88      -0.070400
     22 C6         592.0430  -307.4600   586.5230 c3         1 I88      -0.084400
     23 C7         592.8990  -306.2070   586.2560 c3         1 I88       0.164600
     24 N12        588.0210  -310.9200   588.1740 ns         1 I88      -0.475900
     25 N22        589.7950  -311.4010   591.4110 ns         1 I88      -0.495900
     26 N3         588.2960  -308.3660   584.1790 n8         1 I88      -0.998200
     27 O11        586.6040  -309.1350   588.2680 o          1 I88      -0.615100
     28 O32        597.3450  -310.9180   593.6610 oh         1 I88      -0.532100
     29 O33        589.9750  -311.7990   594.2030 o          1 I88      -0.499000
     30 O34        592.0080  -312.8220   593.9090 os         1 I88      -0.419100
     31 O8         594.1910  -306.3690   586.8470 oh         1 I88      -0.661000
     32 O9         586.1100  -309.6540   585.4280 oh         1 I88      -0.644000
     33 H1         587.9250  -310.6680   585.6920 h1         1 I88       0.091700
     34 H2         587.7250  -310.3540   590.1910 h1         1 I88       0.082700
     35 H3         587.5770  -313.3090   589.3670 hc         1 I88       0.060200
     36 H4         587.3930  -312.7460   591.0160 hc         1 I88       0.060200
     37 H5         585.5150  -311.9630   588.7300 hc         1 I88       0.047700
     38 H6         583.9810  -311.1760   590.5400 hc         1 I88       0.036200
     39 H7         585.2220  -311.5330   591.7590 hc         1 I88       0.036200
     40 H8         585.4930  -310.2610   590.5500 hc         1 I88       0.036200
     41 H9         583.8910  -313.5550   589.7120 hc         1 I88       0.036200
     42 H10        585.3630  -314.3930   589.1900 hc         1 I88       0.036200
     43 H11        585.0930  -314.0680   590.9160 hc         1 I88       0.036200
     44 H12        587.8370  -307.6410   586.0830 h1         1 I88       0.031700
     45 H13        591.6700  -312.3390   591.5230 h1         1 I88       0.097700
     46 H14        591.9430  -309.8860   590.9100 hc         1 I88       0.058700
     47 H15        591.4450  -309.4510   592.5310 hc         1 I88       0.058700
     48 H16        593.0980  -309.3970   594.3090 ha         1 I88       0.116500
     49 H17        595.4420  -309.6970   595.0530 ha         1 I88       0.122500
     50 H18        596.3600  -311.7570   591.3710 ha         1 I88       0.122500
     51 H19        594.0100  -311.4600   590.6150 ha         1 I88       0.116500
     52 H20        592.8770  -313.9750   595.4210 h1         1 I88       0.048700
     53 H21        591.9770  -312.5520   595.9890 h1         1 I88       0.048700
     54 H22        591.1000  -313.9880   595.3990 h1         1 I88       0.048700
     55 H23        590.2590  -309.5000   585.7420 hc         1 I88       0.059200
     56 H24        589.7450  -308.7900   587.2650 hc         1 I88       0.059200
     57 H25        590.1160  -306.4850   586.3280 hc         1 I88       0.035200
     58 H26        590.7170  -307.2020   584.8320 hc         1 I88       0.035200
     59 H27        592.5550  -308.3390   586.1110 hc         1 I88       0.059200
     60 H28        591.9620  -307.6140   587.6070 hc         1 I88       0.059200
     61 H29        592.3960  -305.3270   586.6790 h1         1 I88       0.012700
     62 H30        592.9940  -306.0560   585.1720 h1         1 I88       0.012700
     63 H31        588.5920  -311.4830   587.5520 hn         1 I88       0.328500
     64 H32        588.9890  -311.2600   592.0120 hn         1 I88       0.322500
     65 H33        587.3520  -308.6100   583.8540 hn         1 I88       0.400500
     66 H34        588.3810  -307.3690   583.9550 hn         1 I88       0.400500
     67 H36        597.4490  -310.5120   594.5480 ho         1 I88       0.465000
     68 H37        594.6990  -305.5500   586.6500 ho         1 I88       0.440000
     69 H38        585.5790  -309.0450   585.9900 ho         1 I88       0.456000
     70 O21        590.4780  -311.6000   589.2500 o          1 I88      -0.590100
@<TRIPOS>BOND
     1     1     2 1   
     2     1     8 1   
     3     1    32 1   
     4     1    33 1   
     5     2    24 1   
     6     2    27 2   
     7     3     4 1   
     8     3     9 1   
     9     3    24 1   
    10     3    34 1   
    11     4     5 1   
    12     4    35 1   
    13     4    36 1   
    14     5     6 1   
    15     5     7 1   
    16     5    37 1   
    17     6    38 1   
    18     6    39 1   
    19     6    40 1   
    20     7    41 1   
    21     7    42 1   
    22     7    43 1   
    23     8    20 1   
    24     8    26 1   
    25     8    44 1   
    26     9    25 1   
    27     9    70 2   
    28    10    11 1   
    29    10    12 1   
    30    10    25 1   
    31    10    45 1   
    32    11    29 2   
    33    11    30 1   
    34    12    13 1   
    35    12    46 1   
    36    12    47 1   
    37    13    14 ar  
    38    13    18 ar  
    39    14    15 ar  
    40    14    48 1   
    41    15    16 ar  
    42    15    49 1   
    43    16    17 ar  
    44    16    28 1   
    45    17    18 ar  
    46    17    50 1   
    47    18    51 1   
    48    19    30 1   
    49    19    52 1   
    50    19    53 1   
    51    19    54 1   
    52    20    21 1   
    53    20    55 1   
    54    20    56 1   
    55    21    22 1   
    56    21    57 1   
    57    21    58 1   
    58    22    23 1   
    59    22    59 1   
    60    22    60 1   
    61    23    31 1   
    62    23    61 1   
    63    23    62 1   
    64    24    63 1   
    65    25    64 1   
    66    26    65 1   
    67    26    66 1   
    68    28    67 1   
    69    31    68 1   
    70    32    69 1   
@<TRIPOS>SUBSTRUCTURE
     1 I88         1 TEMP              0 ****  ****    0 ROOT
