@<TRIPOS>MOLECULE
I8A
   37    38     1     0     0
SMALL
No Charge or Current Charge


@<TRIPOS>ATOM
      1 N1          13.0390    19.5950    24.1210 nj         1 I8A      -0.416800
      2 C4          12.1470    20.1510    25.1800 cy         1 I8A       0.081000
      3 C5          13.1130    18.1970    24.4280 c          1 I8A       0.653100
      4 C6          11.5620    16.2160    24.5580 c3         1 I8A       0.137000
      5 C7          10.0570    15.9950    24.5950 cx         1 I8A      -0.165700
      6 C8           9.4580    14.6680    24.1850 cx         1 I8A      -0.123900
      7 C10         14.2440    20.2840    24.7260 cy         1 I8A       0.139400
      8 C1          12.8020    22.4840    24.1410 c3         1 I8A      -0.077100
      9 C2          13.1470    21.3690    25.1680 cy         1 I8A      -0.073000
     10 C3          13.3370    22.0860    26.5260 c3         1 I8A      -0.077100
     11 O1          14.0590    17.4330    24.5450 o          1 I8A      -0.643100
     12 N2          11.8550    17.6330    24.3730 ns         1 I8A      -0.511900
     13 C9           9.2550    15.8890    23.3180 cx         1 I8A      -0.123900
     14 C11         15.2630    20.6990    23.6450 c3         1 I8A      -0.096100
     15 C12         15.0530    19.6690    25.9160 c3         1 I8A      -0.096100
     16 H7          12.1300    19.5900    26.1230 h1         1 I8A       0.046200
     17 H8          11.1340    20.3890    24.8350 h1         1 I8A       0.046200
     18 H11         12.0110    15.6460    23.7340 h1         1 I8A       0.058700
     19 H10         12.0080    15.8730    25.5020 h1         1 I8A       0.058700
     20 H12          9.5820    16.5040    25.4310 hc         1 I8A       0.070700
     21 H13         10.1280    13.8940    23.8180 hc         1 I8A       0.074700
     22 H14          8.6060    14.3000    24.7500 hc         1 I8A       0.074700
     23 H3          12.5980    22.0750    23.1450 hc         1 I8A       0.038700
     24 H1          11.9080    23.0420    24.4450 hc         1 I8A       0.038700
     25 H2          13.6260    23.2020    24.0420 hc         1 I8A       0.038700
     26 H4          13.4580    21.3750    27.3520 hc         1 I8A       0.038700
     27 H5          14.2210    22.7350    26.5110 hc         1 I8A       0.038700
     28 H6          12.4680    22.7090    26.7740 hc         1 I8A       0.038700
     29 H9          11.0890    18.2610    24.1720 hn         1 I8A       0.301500
     30 H15          9.7900    15.9330    22.3720 hc         1 I8A       0.074700
     31 H16          8.2660    16.3410    23.3010 hc         1 I8A       0.074700
     32 H18         15.9510    21.4640    24.0240 hc         1 I8A       0.046700
     33 H19         15.8610    19.8410    23.3170 hc         1 I8A       0.046700
     34 H17         14.7710    21.1050    22.7530 hc         1 I8A       0.046700
     35 H20         15.6440    20.4440    26.4180 hc         1 I8A       0.046700
     36 H21         14.4060    19.2140    26.6750 hc         1 I8A       0.046700
     37 H22         15.7730    18.9120    25.5840 hc         1 I8A       0.046700
@<TRIPOS>BOND
     1     1     2 1   
     2     1     3 1   
     3     1     7 1   
     4     2     9 1   
     5     2    16 1   
     6     2    17 1   
     7     3    11 2   
     8     3    12 1   
     9     4     5 1   
    10     4    12 1   
    11     4    18 1   
    12     4    19 1   
    13     5     6 1   
    14     5    13 1   
    15     5    20 1   
    16     6    13 1   
    17     6    21 1   
    18     6    22 1   
    19     7     9 1   
    20     7    14 1   
    21     7    15 1   
    22     8     9 1   
    23     8    23 1   
    24     8    24 1   
    25     8    25 1   
    26     9    10 1   
    27    10    26 1   
    28    10    27 1   
    29    10    28 1   
    30    12    29 1   
    31    13    30 1   
    32    13    31 1   
    33    14    32 1   
    34    14    33 1   
    35    14    34 1   
    36    15    35 1   
    37    15    36 1   
    38    15    37 1   
@<TRIPOS>SUBSTRUCTURE
     1 I8A         1 TEMP              0 ****  ****    0 ROOT
