@<TRIPOS>MOLECULE
I8A
   37    38     1     0     0
SMALL
abcg2


@<TRIPOS>ATOM
      1 N1          12.7690    19.4350    24.8790 nj         1 I8A      -0.416800
      2 C4          12.1950    20.4010    25.8030 cy         1 I8A       0.081000
      3 C5          12.5830    18.0910    24.7990 c          1 I8A       0.653100
      4 C6          10.9800    16.2840    25.2830 c3         1 I8A       0.137000
      5 C7           9.9630    16.1380    24.1790 cx         1 I8A      -0.165700
      6 C8           9.8090    14.8140    23.4950 cx         1 I8A      -0.123900
      7 C10         14.0230    20.1840    24.7100 cy         1 I8A       0.139400
      8 C1          12.7020    22.3740    24.3110 c3         1 I8A      -0.077100
      9 C2          13.2690    21.4110    25.3450 cy         1 I8A      -0.073000
     10 C3          13.9790    22.1880    26.4360 c3         1 I8A      -0.077100
     11 O1          13.3570    17.3610    24.1850 o          1 I8A      -0.643100
     12 N2          11.4770    17.6320    25.4440 ns         1 I8A      -0.511900
     13 C9          10.4130    15.9740    22.7610 cx         1 I8A      -0.123900
     14 C11         14.5100    20.3230    23.2800 c3         1 I8A      -0.096100
     15 C12         15.1450    19.6400    25.5900 c3         1 I8A      -0.096100
     16 H7          12.2850    20.1060    26.8550 h1         1 I8A       0.046200
     17 H8          11.1560    20.6770    25.6040 h1         1 I8A       0.046200
     18 H11         11.8260    15.6210    25.1000 h1         1 I8A       0.058700
     19 H10         10.5380    15.9730    26.2320 h1         1 I8A       0.058700
     20 H12          9.0490    16.7050    24.3290 hc         1 I8A       0.070700
     21 H13         10.4670    14.0090    23.7980 hc         1 I8A       0.074700
     22 H14          8.8130    14.4910    23.2190 hc         1 I8A       0.074700
     23 H3          12.1140    21.8640    23.5470 hc         1 I8A       0.038700
     24 H1          12.0450    23.0950    24.8000 hc         1 I8A       0.038700
     25 H2          13.4930    22.9350    23.8100 hc         1 I8A       0.038700
     26 H4          14.3380    21.5550    27.2460 hc         1 I8A       0.038700
     27 H5          14.8340    22.7360    26.0340 hc         1 I8A       0.038700
     28 H6          13.2990    22.9220    26.8730 hc         1 I8A       0.038700
     29 H9          10.8300    18.3020    25.8260 hn         1 I8A       0.301500
     30 H15         11.4780    15.9560    22.5730 hc         1 I8A       0.074700
     31 H16          9.8290    16.4450    21.9800 hc         1 I8A       0.074700
     32 H18         15.2900    21.0840    23.2200 hc         1 I8A       0.046700
     33 H19         14.9390    19.3850    22.9290 hc         1 I8A       0.046700
     34 H17         13.7110    20.6020    22.5960 hc         1 I8A       0.046700
     35 H20         15.9720    20.3500    25.6360 hc         1 I8A       0.046700
     36 H21         14.8090    19.4500    26.6110 hc         1 I8A       0.046700
     37 H22         15.5300    18.7050    25.1860 hc         1 I8A       0.046700
@<TRIPOS>BOND
     1     1     2 1   
     2     1     3 1   
     3     1     7 1   
     4     2     9 1   
     5     2    16 1   
     6     2    17 1   
     7     3    11 2   
     8     3    12 1   
     9     4     5 1   
    10     4    12 1   
    11     4    18 1   
    12     4    19 1   
    13     5     6 1   
    14     5    13 1   
    15     5    20 1   
    16     6    13 1   
    17     6    21 1   
    18     6    22 1   
    19     7     9 1   
    20     7    14 1   
    21     7    15 1   
    22     8     9 1   
    23     8    23 1   
    24     8    24 1   
    25     8    25 1   
    26     9    10 1   
    27    10    26 1   
    28    10    27 1   
    29    10    28 1   
    30    12    29 1   
    31    13    30 1   
    32    13    31 1   
    33    14    32 1   
    34    14    33 1   
    35    14    34 1   
    36    15    35 1   
    37    15    36 1   
    38    15    37 1   
@<TRIPOS>SUBSTRUCTURE
     1 I8A         1 TEMP              0 ****  ****    0 ROOT
