@<TRIPOS>MOLECULE
I8B
   61    63     1     0     0
SMALL
abcg2


@<TRIPOS>ATOM
      1 C1         152.0140   116.6530   145.6590 c3         1 I8B       0.040400
      2 C2         152.3310   118.4230   144.0010 c          1 I8B       0.606100
      3 C3         151.8660   118.9360   142.6400 c3         1 I8B       0.126500
      4 C4         150.3920   119.3470   142.7070 c3         1 I8B      -0.085400
      5 C5         150.0670   120.3170   143.8330 c3         1 I8B       0.148800
      6 C8         156.0580   120.5680   141.3290 ca         1 I8B      -0.142000
      7 C9         155.6830   121.4520   140.3530 ca         1 I8B      -0.000300
      8 C6         154.3400   119.0060   140.6970 ca         1 I8B      -0.308500
      9 C7         155.3800   119.3540   141.5160 ca         1 I8B       0.029000
     10 C11        154.5910   121.1150   139.4970 ca         1 I8B      -0.058000
     11 C12        153.9110   119.8720   139.6470 ca         1 I8B       0.045000
     12 C13        152.8500   119.5760   138.7600 ca         1 I8B      -0.139000
     13 C14        152.4640   120.4690   137.7960 ca         1 I8B      -0.079000
     14 C15        153.1230   121.7000   137.6580 ca         1 I8B      -0.118000
     15 C16        154.1660   122.0090   138.4880 ca         1 I8B      -0.085000
     16 C17        150.7330   116.7500   146.5170 c3         1 I8B      -0.045100
     17 C18        149.5490   116.0620   145.9000 ca         1 I8B      -0.091300
     18 C19        148.6490   116.7670   145.1020 ca         1 I8B      -0.104500
     19 C20        147.5810   116.1230   144.4920 ca         1 I8B      -0.109000
     20 C21        147.3930   114.7600   144.6750 ca         1 I8B      -0.108000
     21 C22        148.2750   114.0480   145.4790 ca         1 I8B      -0.109000
     22 C23        149.3410   114.6960   146.0870 ca         1 I8B      -0.104500
     23 O2         153.0440   119.1100   144.7130 o          1 I8B      -0.608100
     24 O3         152.3040   114.6380   144.4210 oh         1 I8B      -0.612600
     25 N          153.0620   114.5970   146.5490 n2         1 I8B      -0.870100
     26 C          152.5180   115.2230   145.5970 c2         1 I8B       0.616600
     27 N1         151.8220   117.2340   144.3580 ns         1 I8B      -0.463900
     28 N2         148.6450   120.6190   143.8150 n8         1 I8B      -1.003200
     29 N3         151.9910   117.9190   141.6030 n7         1 I8B      -0.873300
     30 S          153.5000   117.4870   141.0770 sy         1 I8B       1.145600
     31 H1         152.7830   117.2380   146.1650 h1         1 I8B       0.094700
     32 H2         152.4680   119.8240   142.4150 h1         1 I8B       0.076700
     33 H3         150.1320   119.8100   141.7490 hc         1 I8B       0.058200
     34 H4         149.7680   118.4550   142.8050 hc         1 I8B       0.058200
     35 H5         150.2910   119.8570   144.7980 h1         1 I8B       0.039700
     36 H6         150.7130   121.2020   143.7520 h1         1 I8B       0.039700
     37 H7         156.8820   120.8090   141.9880 ha         1 I8B       0.123000
     38 H8         155.6930   118.7030   142.3200 ha         1 I8B       0.152000
     39 H9         155.7420   123.6040   140.3280 hc         1 I8B       0.051367
     40 H10        157.2100   122.8370   140.9280 hc         1 I8B       0.051367
     41 H11        156.8550   122.8440   139.2030 hc         1 I8B       0.051367
     42 H12        152.3360   118.6280   138.8050 ha         1 I8B       0.123000
     43 H13        151.6490   120.2160   137.1310 ha         1 I8B       0.118000
     44 H14        152.8100   122.4000   136.8940 ha         1 I8B       0.118000
     45 H15        154.6720   122.9570   138.3690 ha         1 I8B       0.115000
     46 H16        150.9450   116.3380   147.5050 hc         1 I8B       0.058700
     47 H17        150.5210   117.8120   146.6560 hc         1 I8B       0.058700
     48 H18        148.7740   117.8360   144.9640 ha         1 I8B       0.117500
     49 H19        146.8920   116.6890   143.8780 ha         1 I8B       0.114000
     50 H20        146.5610   114.2550   144.2020 ha         1 I8B       0.112000
     51 H21        148.1300   112.9870   145.6370 ha         1 I8B       0.114000
     52 H22        150.0180   114.1330   146.7190 ha         1 I8B       0.117500
     53 H23        153.1590   115.1830   147.3720 hn         1 I8B       0.398400
     54 H25        151.2520   116.7400   143.6870 hn         1 I8B       0.346500
     55 H26        148.4150   121.2070   144.6050 hn         1 I8B       0.397000
     56 H27        148.4240   121.1660   142.9920 hn         1 I8B       0.397000
     57 H29        151.3290   118.0260   140.8410 hn         1 I8B       0.489000
     58 H30        152.6200   113.7240   144.4640 ho         1 I8B       0.485000
     59 C10        156.4110   122.7510   140.1950 c3         1 I8B      -0.061800
     60 O1         153.2970   116.6960   139.8750 o          1 I8B      -0.527000
     61 O          154.1870   116.8880   142.2080 o          1 I8B      -0.527000
@<TRIPOS>BOND
     1     1    16 1   
     2     1    26 1   
     3     1    27 1   
     4     1    31 1   
     5     2     3 1   
     6     2    23 2   
     7     2    27 1   
     8     3     4 1   
     9     3    29 1   
    10     3    32 1   
    11     4     5 1   
    12     4    33 1   
    13     4    34 1   
    14     5    28 1   
    15     5    35 1   
    16     5    36 1   
    17     6     7 ar  
    18     6     9 ar  
    19     6    37 1   
    20     7    10 ar  
    21     7    59 1   
    22     8     9 ar  
    23     8    11 ar  
    24     8    30 1   
    25     9    38 1   
    26    10    11 ar  
    27    10    15 ar  
    28    11    12 ar  
    29    12    13 ar  
    30    12    42 1   
    31    13    14 ar  
    32    13    43 1   
    33    14    15 ar  
    34    14    44 1   
    35    15    45 1   
    36    16    17 1   
    37    16    46 1   
    38    16    47 1   
    39    17    18 ar  
    40    17    22 ar  
    41    18    19 ar  
    42    18    48 1   
    43    19    20 ar  
    44    19    49 1   
    45    20    21 ar  
    46    20    50 1   
    47    21    22 ar  
    48    21    51 1   
    49    22    52 1   
    50    24    26 1   
    51    24    58 1   
    52    25    26 2   
    53    25    53 1   
    54    27    54 1   
    55    28    55 1   
    56    28    56 1   
    57    29    30 1   
    58    29    57 1   
    59    30    60 2   
    60    30    61 2   
    61    39    59 1   
    62    40    59 1   
    63    41    59 1   
@<TRIPOS>SUBSTRUCTURE
     1 I8B         1 TEMP              0 ****  ****    0 ROOT
