@<TRIPOS>MOLECULE
I8B
   61    63     1     0     0
SMALL
No Charge or Current Charge


@<TRIPOS>ATOM
      1 C1         152.5690   117.1430   144.9990 c3         1 I8B       0.040400
      2 C2         151.7420   118.6230   143.1020 c          1 I8B       0.606100
      3 C3         151.1130   118.5780   141.6650 c3         1 I8B       0.126500
      4 C4         149.5700   118.6950   141.7260 c3         1 I8B      -0.085400
      5 C5         149.0680   120.0230   142.3350 c3         1 I8B       0.148800
      6 C8         155.6200   119.5280   142.2500 ca         1 I8B      -0.142000
      7 C9         155.5370   120.7440   141.5570 ca         1 I8B      -0.000300
      8 C6         153.9400   118.5200   140.7890 ca         1 I8B      -0.308500
      9 C7         154.8390   118.4320   141.8730 ca         1 I8B       0.029000
     10 C11        154.6420   120.8610   140.4630 ca         1 I8B      -0.058000
     11 C12        153.8350   119.7520   140.0710 ca         1 I8B       0.045000
     12 C13        152.9340   119.9280   138.9890 ca         1 I8B      -0.139000
     13 C14        152.8470   121.1480   138.3030 ca         1 I8B      -0.079000
     14 C15        153.6530   122.2240   138.6830 ca         1 I8B      -0.118000
     15 C16        154.5410   122.0850   139.7560 ca         1 I8B      -0.085000
     16 C17        151.5630   117.4760   146.1350 c3         1 I8B      -0.045100
     17 C18        150.2440   116.7130   146.0360 ca         1 I8B      -0.091300
     18 C19        149.1420   117.2840   145.3710 ca         1 I8B      -0.104500
     19 C20        147.9280   116.5830   145.2740 ca         1 I8B      -0.109000
     20 C21        147.8050   115.3070   145.8480 ca         1 I8B      -0.108000
     21 C22        148.8980   114.7350   146.5220 ca         1 I8B      -0.109000
     22 C23        150.1130   115.4360   146.6170 ca         1 I8B      -0.104500
     23 O2         152.0350   119.6650   143.6750 o          1 I8B      -0.608100
     24 O3         152.5740   114.7810   144.4070 oh         1 I8B      -0.612600
     25 N          154.1490   115.4160   145.8560 n2         1 I8B      -0.870100
     26 C          153.1520   115.7250   145.1270 c2         1 I8B       0.616600
     27 N1         151.9870   117.3890   143.6610 ns         1 I8B      -0.463900
     28 N2         147.5940   120.0950   142.3200 n8         1 I8B      -1.003200
     29 N3         151.4520   117.3400   140.8830 n7         1 I8B      -0.873300
     30 S          153.0200   117.0030   140.3950 sy         1 I8B       1.145600
     31 H1         153.4130   117.8370   145.1060 h1         1 I8B       0.094700
     32 H2         151.4750   119.4740   141.1470 h1         1 I8B       0.076700
     33 H3         149.1670   118.6050   140.7090 hc         1 I8B       0.058200
     34 H4         149.1680   117.8540   142.3030 hc         1 I8B       0.058200
     35 H5         149.4090   120.1160   143.3740 h1         1 I8B       0.039700
     36 H6         149.4700   120.8700   141.7600 h1         1 I8B       0.039700
     37 H7         156.3010   119.4230   143.0910 ha         1 I8B       0.123000
     38 H8         154.9460   117.5080   142.4390 ha         1 I8B       0.152000
     39 H9         155.8150   122.7620   142.3260 hc         1 I8B       0.051367
     40 H10        157.0430   121.6230   142.8780 hc         1 I8B       0.051367
     41 H11        157.0980   122.2250   141.2210 hc         1 I8B       0.051367
     42 H12        152.2670   119.1410   138.6610 ha         1 I8B       0.123000
     43 H13        152.1470   121.2590   137.4760 ha         1 I8B       0.118000
     44 H14        153.5840   123.1700   138.1500 ha         1 I8B       0.118000
     45 H15        155.1450   122.9460   140.0270 ha         1 I8B       0.115000
     46 H16        152.0390   117.2770   147.1030 hc         1 I8B       0.058700
     47 H17        151.3650   118.5550   146.1260 hc         1 I8B       0.058700
     48 H18        149.2240   118.2730   144.9280 ha         1 I8B       0.117500
     49 H19        147.0830   117.0300   144.7550 ha         1 I8B       0.114000
     50 H20        146.8660   114.7640   145.7740 ha         1 I8B       0.112000
     51 H21        148.8040   113.7480   146.9690 ha         1 I8B       0.114000
     52 H22        150.9520   114.9840   147.1410 ha         1 I8B       0.117500
     53 H23        154.4800   116.2610   146.3440 hn         1 I8B       0.398400
     54 H25        151.7560   116.5900   143.0750 hn         1 I8B       0.346500
     55 H26        147.2980   121.0130   142.6770 hn         1 I8B       0.397000
     56 H27        147.2660   120.1000   141.3470 hn         1 I8B       0.397000
     57 H29        150.9840   117.3530   139.9770 hn         1 I8B       0.489000
     58 H30        153.1120   114.0000   144.6360 ho         1 I8B       0.485000
     59 C10        156.4200   121.9010   142.0200 c3         1 I8B      -0.061800
     60 O1         152.9190   116.8560   138.9440 o          1 I8B      -0.527000
     61 O          153.4610   115.8980   141.2470 o          1 I8B      -0.527000
@<TRIPOS>BOND
     1     1    16 1   
     2     1    26 1   
     3     1    27 1   
     4     1    31 1   
     5     2     3 1   
     6     2    23 2   
     7     2    27 1   
     8     3     4 1   
     9     3    29 1   
    10     3    32 1   
    11     4     5 1   
    12     4    33 1   
    13     4    34 1   
    14     5    28 1   
    15     5    35 1   
    16     5    36 1   
    17     6     7 ar  
    18     6     9 ar  
    19     6    37 1   
    20     7    10 ar  
    21     7    59 1   
    22     8     9 ar  
    23     8    11 ar  
    24     8    30 1   
    25     9    38 1   
    26    10    11 ar  
    27    10    15 ar  
    28    11    12 ar  
    29    12    13 ar  
    30    12    42 1   
    31    13    14 ar  
    32    13    43 1   
    33    14    15 ar  
    34    14    44 1   
    35    15    45 1   
    36    16    17 1   
    37    16    46 1   
    38    16    47 1   
    39    17    18 ar  
    40    17    22 ar  
    41    18    19 ar  
    42    18    48 1   
    43    19    20 ar  
    44    19    49 1   
    45    20    21 ar  
    46    20    50 1   
    47    21    22 ar  
    48    21    51 1   
    49    22    52 1   
    50    24    26 1   
    51    24    58 1   
    52    25    26 2   
    53    25    53 1   
    54    27    54 1   
    55    28    55 1   
    56    28    56 1   
    57    29    30 1   
    58    29    57 1   
    59    30    60 2   
    60    30    61 2   
    61    39    59 1   
    62    40    59 1   
    63    41    59 1   
@<TRIPOS>SUBSTRUCTURE
     1 I8B         1 TEMP              0 ****  ****    0 ROOT
