@<TRIPOS>MOLECULE
I8D
   27    28     1     0     0
SMALL
No Charge or Current Charge


@<TRIPOS>ATOM
      1 N1          12.8080    20.9220    24.2870 n          1 I8D      -0.407800
      2 C4          13.9860    22.2940    22.5170 ca         1 I8D      -0.143600
      3 C5          13.9950    23.5160    23.2290 ca         1 I8D      -0.068500
      4 C6          14.8250    24.5750    22.8200 ca         1 I8D      -0.111000
      5 C7          13.0840    21.1450    22.9170 c          1 I8D       0.617700
      6 C8          13.8160    21.1930    25.3550 c6         1 I8D       0.102000
      7 C10         11.5850    19.6800    26.1930 c6         1 I8D       0.042600
      8 C1          15.6410    24.4300    21.6880 ca         1 I8D       0.133000
      9 C2          15.6210    23.2340    20.9560 ca         1 I8D      -0.111000
     10 C3          14.7910    22.1740    21.3630 ca         1 I8D      -0.068500
     11 O1          12.5330    20.4690    22.0560 o          1 I8D      -0.586100
     12 C9          13.2090    21.9550    26.5610 c6         1 I8D       0.042600
     13 S1          11.6660    21.1910    27.2610 ss         1 I8D      -0.417000
     14 C11         11.7120    19.9790    24.6760 c6         1 I8D       0.102000
     15 H3          13.3430    23.6600    24.0870 ha         1 I8D       0.129000
     16 H4          14.8280    25.5100    23.3740 ha         1 I8D       0.133500
     17 H6          14.2240    20.2350    25.7060 h1         1 I8D       0.061450
     18 H5          14.6740    21.7550    24.9640 h1         1 I8D       0.061450
     19 H9          12.3970    19.0080    26.5030 h1         1 I8D       0.073950
     20 H10         10.6360    19.1620    26.3920 h1         1 I8D       0.073950
     21 H1          16.2460    23.1280    20.0730 ha         1 I8D       0.133500
     22 H2          14.7830    21.2520    20.7850 ha         1 I8D       0.129000
     23 H7          13.9550    22.0190    27.3660 h1         1 I8D       0.073950
     24 H8          12.9590    22.9820    26.2620 h1         1 I8D       0.073950
     25 H12         11.8430    19.0270    24.1420 h1         1 I8D       0.061450
     26 H11         10.7610    20.4090    24.3310 h1         1 I8D       0.061450
     27 Cl1         16.6770    25.7570    21.1760 cl         1 I8D      -0.196000
@<TRIPOS>BOND
     1     1     5 1   
     2     1     6 1   
     3     1    14 1   
     4     2     3 ar  
     5     2     5 1   
     6     2    10 ar  
     7     3     4 ar  
     8     3    15 1   
     9     4     8 ar  
    10     4    16 1   
    11     5    11 2   
    12     6    12 1   
    13     6    17 1   
    14     6    18 1   
    15     7    13 1   
    16     7    14 1   
    17     7    19 1   
    18     7    20 1   
    19     8     9 ar  
    20     8    27 1   
    21     9    10 ar  
    22     9    21 1   
    23    10    22 1   
    24    12    13 1   
    25    12    23 1   
    26    12    24 1   
    27    14    25 1   
    28    14    26 1   
@<TRIPOS>SUBSTRUCTURE
     1 I8D         1 TEMP              0 ****  ****    0 ROOT
