@<TRIPOS>MOLECULE
I8D
   27    28     1     0     0
SMALL
bcc


@<TRIPOS>ATOM
      1 N1          12.8490    20.8730    24.2640 n          1 I8D      -0.474800
      2 C4          13.8920    22.3560    22.6210 ca         1 I8D      -0.143600
      3 C5          13.8800    23.6020    23.2390 ca         1 I8D      -0.086500
      4 C6          14.7290    24.6120    22.8120 ca         1 I8D      -0.129000
      5 C7          12.9110    21.2850    22.9820 c          1 I8D       0.684700
      6 C8          13.8500    21.1470    25.2780 c6         1 I8D       0.102000
      7 C10         11.6750    19.7520    26.1170 c6         1 I8D      -0.005300
      8 C1          15.5990    24.3620    21.7640 ca         1 I8D       0.041400
      9 C2          15.6250    23.1280    21.1300 ca         1 I8D      -0.129000
     10 C3          14.7570    22.1350    21.5530 ca         1 I8D      -0.086500
     11 O1          12.1850    20.8220    22.1130 o          1 I8D      -0.586100
     12 C9          13.2940    21.9400    26.4560 c6         1 I8D      -0.005300
     13 S1          11.6210    21.3730    26.9200 ss         1 I8D      -0.321200
     14 C11         11.8230    19.8930    24.6100 c6         1 I8D       0.102000
     15 H3          13.1910    23.8050    24.0490 ha         1 I8D       0.147000
     16 H4          14.7060    25.5810    23.2920 ha         1 I8D       0.151500
     17 H6          14.2610    20.1980    25.6300 h1         1 I8D       0.061450
     18 H5          14.6880    21.6880    24.8450 h1         1 I8D       0.061450
     19 H9          12.4640    19.1420    26.5580 h1         1 I8D       0.073950
     20 H10         10.7310    19.2550    26.3380 h1         1 I8D       0.073950
     21 H1          16.3070    22.9440    20.3120 ha         1 I8D       0.151500
     22 H2          14.7670    21.1770    21.0490 ha         1 I8D       0.147000
     23 H7          13.9740    21.8450    27.3030 h1         1 I8D       0.073950
     24 H8          13.2120    22.9980    26.2110 h1         1 I8D       0.073950
     25 H12         12.0620    18.9160    24.1760 h1         1 I8D       0.061450
     26 H11         10.8730    20.2160    24.1870 h1         1 I8D       0.061450
     27 CL1         16.6710    25.6130    21.2330 cl         1 I8D      -0.104400
@<TRIPOS>BOND
     1     1     5 1   
     2     1     6 1   
     3     1    14 1   
     4     2     3 ar  
     5     2     5 1   
     6     2    10 ar  
     7     3     4 ar  
     8     3    15 1   
     9     4     8 ar  
    10     4    16 1   
    11     5    11 2   
    12     6    12 1   
    13     6    17 1   
    14     6    18 1   
    15     7    13 1   
    16     7    14 1   
    17     7    19 1   
    18     7    20 1   
    19     8     9 ar  
    20     8    27 1   
    21     9    10 ar  
    22     9    21 1   
    23    10    22 1   
    24    12    13 1   
    25    12    23 1   
    26    12    24 1   
    27    14    25 1   
    28    14    26 1   
@<TRIPOS>SUBSTRUCTURE
     1 I8D         1 TEMP              0 ****  ****    0 ROOT
