@<TRIPOS>MOLECULE
I8E
   47    49     1     0     0
SMALL
bcc


@<TRIPOS>ATOM
      1 C1          90.6700   116.8360   110.5160 c3         1 I8E      -0.090100
      2 C10         85.1850   116.7870   119.1700 c2         1 I8E      -0.111400
      3 C11         85.1340   115.4360   119.8280 c6         1 I8E      -0.043200
      4 C12         85.5380   114.2770   118.9150 c6         1 I8E      -0.063400
      5 C13         86.6320   114.7370   117.9610 c6         1 I8E      -0.087700
      6 C14         87.3600   113.6540   117.1710 c6         1 I8E       0.176800
      7 C16         88.1540   115.4060   115.7360 ca         1 I8E       0.187100
      8 C17         89.0980   115.7620   114.7760 ca         1 I8E      -0.199000
      9 C18         86.4680   112.9110   116.1830 c3         1 I8E      -0.098600
     10 C19         88.0570   112.6630   118.0920 c3         1 I8E      -0.098600
     11 C2          89.6600   116.4550   111.5880 c3         1 I8E      -0.073400
     12 C20         84.7800   117.9420   120.0340 c3         1 I8E      -0.054900
     13 C3          89.8810   117.2230   112.8920 c3         1 I8E      -0.034100
     14 C4          88.8810   116.8570   113.9530 ca         1 I8E      -0.011300
     15 C5          87.6870   117.5610   114.0660 ca         1 I8E      -0.199000
     16 C6          86.7460   117.1960   115.0220 ca         1 I8E       0.179100
     17 C7          86.9900   116.1570   115.9290 ca         1 I8E      -0.246300
     18 C8          86.0290   115.7980   117.0370 c6         1 I8E       0.036800
     19 C9          85.5990   116.9570   117.9130 c2         1 I8E      -0.180200
     20 O15         88.4330   114.3050   116.4620 os         1 I8E      -0.329900
     21 O21         85.5920   117.9040   115.0240 oh         1 I8E      -0.507100
     22 H1A         90.5010   116.2780   109.5940 hc         1 I8E       0.031700
     23 H1C         90.6090   117.8990   110.2760 hc         1 I8E       0.031700
     24 H1B         91.6900   116.6310   110.8440 hc         1 I8E       0.031700
     25 H11B        85.7960   115.4660   120.7010 hc         1 I8E       0.048200
     26 H11A        84.1320   115.2670   120.2360 hc         1 I8E       0.048200
     27 H12A        84.6750   113.9270   118.3430 hc         1 I8E       0.043700
     28 H12B        85.8700   113.4380   119.5280 hc         1 I8E       0.043700
     29 H13         87.4070   115.2310   118.5640 hc         1 I8E       0.072700
     30 H17         89.9990   115.1670   114.6750 ha         1 I8E       0.146000
     31 H18C        85.6540   112.4130   116.7110 hc         1 I8E       0.046867
     32 H18B        86.0220   113.5690   115.4360 hc         1 I8E       0.046867
     33 H18A        87.0380   112.1450   115.6570 hc         1 I8E       0.046867
     34 H19A        88.6690   113.1740   118.8370 hc         1 I8E       0.046867
     35 H19C        87.3290   112.0470   118.6180 hc         1 I8E       0.046867
     36 H19B        88.7000   111.9930   117.5190 hc         1 I8E       0.046867
     37 H2B         88.6450   116.6440   111.2270 hc         1 I8E       0.042700
     38 H2A         89.7190   115.3820   111.7880 hc         1 I8E       0.042700
     39 H20C        83.7430   117.8400   120.3630 hc         1 I8E       0.041700
     40 H20B        85.3910   117.9810   120.9400 hc         1 I8E       0.041700
     41 H20A        84.8800   118.8950   119.5170 hc         1 I8E       0.041700
     42 H3B         90.8930   117.0240   113.2560 hc         1 I8E       0.048700
     43 H3A         89.8270   118.2960   112.6900 hc         1 I8E       0.048700
     44 H5          87.4740   118.3870   113.3970 ha         1 I8E       0.147000
     45 H8          85.1280   115.3650   116.5740 hc         1 I8E       0.054700
     46 H9          85.6430   117.9680   117.5240 ha         1 I8E       0.134000
     47 H21         84.9150   117.4740   115.5550 ho         1 I8E       0.430000
@<TRIPOS>BOND
     1     1    11 1   
     2     1    22 1   
     3     1    23 1   
     4     1    24 1   
     5     2     3 1   
     6     2    12 1   
     7     2    19 2   
     8     3     4 1   
     9     3    25 1   
    10     3    26 1   
    11     4     5 1   
    12     4    27 1   
    13     4    28 1   
    14     5     6 1   
    15     5    18 1   
    16     5    29 1   
    17     6     9 1   
    18     6    10 1   
    19     6    20 1   
    20     7     8 ar  
    21     7    17 ar  
    22     7    20 1   
    23     8    14 ar  
    24     8    30 1   
    25     9    31 1   
    26     9    32 1   
    27     9    33 1   
    28    10    34 1   
    29    10    35 1   
    30    10    36 1   
    31    11    13 1   
    32    11    37 1   
    33    11    38 1   
    34    12    39 1   
    35    12    40 1   
    36    12    41 1   
    37    13    14 1   
    38    13    42 1   
    39    13    43 1   
    40    14    15 ar  
    41    15    16 ar  
    42    15    44 1   
    43    16    17 ar  
    44    16    21 1   
    45    17    18 1   
    46    18    19 1   
    47    18    45 1   
    48    19    46 1   
    49    21    47 1   
@<TRIPOS>SUBSTRUCTURE
     1 I8E         1 TEMP              0 ****  ****    0 ROOT
