@<TRIPOS>MOLECULE
I8E
   47    49     1     0     0
SMALL
No Charge or Current Charge


@<TRIPOS>ATOM
      1 C1          90.6440   116.8080   110.3770 c3         1 I8E      -0.090100
      2 C10         85.1040   116.8120   119.2050 c2         1 I8E      -0.111400
      3 C11         84.9440   115.4160   119.8200 c6         1 I8E      -0.043200
      4 C12         85.4950   114.2560   118.9410 c6         1 I8E      -0.063400
      5 C13         86.6490   114.7530   118.0230 c6         1 I8E      -0.087700
      6 C14         87.4030   113.6570   117.2170 c6         1 I8E       0.200000
      7 C16         88.2210   115.4280   115.7420 ca         1 I8E       0.187100
      8 C17         89.1490   115.7690   114.7470 ca         1 I8E      -0.181000
      9 C18         86.5170   112.8820   116.1920 c3         1 I8E      -0.098600
     10 C19         88.1040   112.6180   118.1380 c3         1 I8E      -0.098600
     11 C2          89.6440   116.4660   111.4980 c3         1 I8E      -0.073400
     12 C20         84.6680   117.9510   120.1070 c3         1 I8E      -0.054900
     13 C3          89.9240   117.2230   112.8140 c3         1 I8E      -0.034100
     14 C4          88.9230   116.8670   113.9040 ca         1 I8E      -0.011300
     15 C5          87.7360   117.6020   114.0490 ca         1 I8E      -0.181000
     16 C6          86.8080   117.2730   115.0480 ca         1 I8E       0.179100
     17 C7          87.0620   116.2160   115.9520 ca         1 I8E      -0.246300
     18 C8          86.0820   115.8510   117.0880 c6         1 I8E       0.036800
     19 C9          85.6370   117.0070   117.9830 c2         1 I8E      -0.230200
     20 O15         88.4690   114.2850   116.4760 os         1 I8E      -0.353100
     21 O21         85.6390   117.9700   115.0920 oh         1 I8E      -0.546100
     22 H1A         90.4040   116.2460   109.4660 hc         1 I8E       0.031700
     23 H1C         90.6100   117.8780   110.1390 hc         1 I8E       0.031700
     24 H1B         91.6670   116.5510   110.6770 hc         1 I8E       0.031700
     25 H11B        85.4770   115.4020   120.7810 hc         1 I8E       0.048200
     26 H11A        83.8880   115.2280   120.0580 hc         1 I8E       0.048200
     27 H12A        84.6810   113.8480   118.3270 hc         1 I8E       0.043700
     28 H12B        85.8280   113.4390   119.5940 hc         1 I8E       0.043700
     29 H13         87.4040   115.2240   118.6690 hc         1 I8E       0.072700
     30 H17         90.0390   115.1590   114.6180 ha         1 I8E       0.128000
     31 H18C        85.7160   112.3280   116.6960 hc         1 I8E       0.046867
     32 H18B        86.0480   113.5480   115.4600 hc         1 I8E       0.046867
     33 H18A        87.1120   112.1530   115.6290 hc         1 I8E       0.046867
     34 H19A        88.7150   113.1120   118.9020 hc         1 I8E       0.046867
     35 H19C        87.3790   111.9780   118.6540 hc         1 I8E       0.046867
     36 H19B        88.7650   111.9590   117.5620 hc         1 I8E       0.046867
     37 H2B         88.6290   116.7000   111.1550 hc         1 I8E       0.042700
     38 H2A         89.6760   115.3860   111.6880 hc         1 I8E       0.042700
     39 H20C        83.6040   117.8660   120.3600 hc         1 I8E       0.041700
     40 H20B        85.2360   117.9510   121.0440 hc         1 I8E       0.041700
     41 H20A        84.8170   118.9270   119.6300 hc         1 I8E       0.041700
     42 H3B         90.9430   116.9940   113.1510 hc         1 I8E       0.048700
     43 H3A         89.9020   118.3030   112.6200 hc         1 I8E       0.048700
     44 H5          87.5220   118.4250   113.3730 ha         1 I8E       0.129000
     45 H8          85.1780   115.4570   116.6010 hc         1 I8E       0.054700
     46 H9          85.7980   118.0230   117.6220 ha         1 I8E       0.184000
     47 H21         85.0620   117.5310   115.7500 ho         1 I8E       0.469000
@<TRIPOS>BOND
     1     1    11 1   
     2     1    22 1   
     3     1    23 1   
     4     1    24 1   
     5     2     3 1   
     6     2    12 1   
     7     2    19 2   
     8     3     4 1   
     9     3    25 1   
    10     3    26 1   
    11     4     5 1   
    12     4    27 1   
    13     4    28 1   
    14     5     6 1   
    15     5    18 1   
    16     5    29 1   
    17     6     9 1   
    18     6    10 1   
    19     6    20 1   
    20     7     8 ar  
    21     7    17 ar  
    22     7    20 1   
    23     8    14 ar  
    24     8    30 1   
    25     9    31 1   
    26     9    32 1   
    27     9    33 1   
    28    10    34 1   
    29    10    35 1   
    30    10    36 1   
    31    11    13 1   
    32    11    37 1   
    33    11    38 1   
    34    12    39 1   
    35    12    40 1   
    36    12    41 1   
    37    13    14 1   
    38    13    42 1   
    39    13    43 1   
    40    14    15 ar  
    41    15    16 ar  
    42    15    44 1   
    43    16    17 ar  
    44    16    21 1   
    45    17    18 1   
    46    18    19 1   
    47    18    45 1   
    48    19    46 1   
    49    21    47 1   
@<TRIPOS>SUBSTRUCTURE
     1 I8E         1 TEMP              0 ****  ****    0 ROOT
