@<TRIPOS>MOLECULE
I8F
   63    65     1     0     0
SMALL
No Charge or Current Charge


@<TRIPOS>ATOM
      1 O3          18.9930     6.3900    30.4570 o          1 I8F      -0.718000
      2 O22         19.5240     7.5720    22.5710 o          1 I8F      -0.604100
      3 C23         21.0100     5.8400    21.8670 c3         1 I8F      -0.155400
      4 C24         20.6460     5.6740    20.3610 c3         1 I8F      -0.060400
      5 C25         19.6680     4.5290    19.9350 c6         1 I8F      -0.056700
      6 C30         20.2340     3.0940    20.1920 c6         1 I8F      -0.073900
      7 C29         19.1280     2.0000    20.2490 c6         1 I8F      -0.072400
      8 C28         17.9250     2.3540    19.3430 c6         1 I8F      -0.073400
      9 C27         17.2460     3.6840    19.7800 c6         1 I8F      -0.072400
     10 C26         18.2220     4.6720    20.4810 c6         1 I8F      -0.073900
     11 N16         19.1840     5.5930    23.6870 n          1 I8F      -0.409800
     12 C17         19.6240     4.2030    24.0370 c6         1 I8F       0.097000
     13 C18         18.4930     3.2880    24.5720 c6         1 I8F      -0.098400
     14 C19         17.6450     3.9650    25.6640 c6         1 I8F      -0.074400
     15 C20         17.1070     5.3030    25.1240 c6         1 I8F      -0.075400
     16 C14         18.2800     6.2370    24.7070 c6         1 I8F       0.012700
     17 O15         20.1760     7.3790    25.7610 o          1 I8F      -0.657100
     18 N5          18.4140     6.9370    27.1220 ns         1 I8F      -0.453900
     19 C4          18.9560     7.5450    28.3620 c3         1 I8F      -0.038300
     20 C2          18.2770     6.9060    29.6110 c          1 I8F       0.718000
     21 O1          17.0550     6.8190    29.6230 o          1 I8F      -0.718000
     22 C6          18.8050     9.0860    28.3500 c3         1 I8F      -0.036100
     23 C7          19.5290     9.7540    29.5120 ca         1 I8F      -0.028300
     24 C12         18.8050    10.2550    30.6110 ca         1 I8F      -0.094500
     25 C11         19.4780    10.8710    31.6810 ca         1 I8F      -0.119000
     26 C10         20.8770    10.9890    31.6580 ca         1 I8F      -0.132000
     27 C9          21.6050    10.4910    30.5650 ca         1 I8F      -0.119000
     28 C8          20.9320     9.8750    29.4940 ca         1 I8F      -0.094500
     29 H2          21.4170     4.9060    22.2540 hc         1 I8F       0.060200
     30 H3          21.8170     6.5810    21.9070 hc         1 I8F       0.060200
     31 H4          21.5880     5.5330    19.8150 hc         1 I8F       0.053200
     32 H5          20.2510     6.6320    20.0000 hc         1 I8F       0.053200
     33 H6          19.5920     4.6450    18.8440 hc         1 I8F       0.040700
     34 H7          20.8130     3.0510    21.1210 hc         1 I8F       0.041950
     35 H8          20.9450     2.8500    19.3910 hc         1 I8F       0.041950
     36 H9          18.7780     1.8860    21.2840 hc         1 I8F       0.033200
     37 H10         19.5500     1.0280    19.9580 hc         1 I8F       0.033200
     38 H11         17.1890     1.5380    19.3540 hc         1 I8F       0.031700
     39 H12         18.2720     2.4410    18.3040 hc         1 I8F       0.031700
     40 H13         16.8030     4.1640    18.8970 hc         1 I8F       0.033200
     41 H14         16.4100     3.4680    20.4590 hc         1 I8F       0.033200
     42 H15         17.8590     5.7020    20.3600 hc         1 I8F       0.041950
     43 H16         18.2080     4.4600    21.5550 hc         1 I8F       0.041950
     44 H17         20.0360     3.6940    23.1590 h1         1 I8F       0.055200
     45 H18         20.4240     4.2690    24.7880 h1         1 I8F       0.055200
     46 H19         17.8400     3.0030    23.7360 hc         1 I8F       0.037200
     47 H20         18.9240     2.3530    24.9560 hc         1 I8F       0.037200
     48 H21         18.2480     4.1240    26.5690 hc         1 I8F       0.044700
     49 H22         16.8100     3.3100    25.9500 hc         1 I8F       0.044700
     50 H23         16.4410     5.7820    25.8530 hc         1 I8F       0.049700
     51 H24         16.4800     5.1070    24.2430 hc         1 I8F       0.049700
     52 H25         17.7930     7.1010    24.2330 h1         1 I8F       0.100700
     53 H26         17.4920     6.5190    27.1710 hn         1 I8F       0.345500
     54 H27         20.0240     7.3000    28.4170 h1         1 I8F       0.066700
     55 H28         19.2050     9.4790    27.4080 hc         1 I8F       0.034200
     56 H29         17.7390     9.3460    28.3560 hc         1 I8F       0.034200
     57 H30         17.7210    10.1670    30.6390 ha         1 I8F       0.113000
     58 H31         18.9140    11.2560    32.5280 ha         1 I8F       0.093000
     59 H32         21.3970    11.4660    32.4860 ha         1 I8F       0.090000
     60 H33         22.6880    10.5820    30.5450 ha         1 I8F       0.093000
     61 H34         21.5010     9.4920    28.6500 ha         1 I8F       0.113000
     62 C13         19.0580     6.8940    25.9000 c          1 I8F       0.580100
     63 C21         19.8580     6.4040    22.7300 c          1 I8F       0.612100
@<TRIPOS>BOND
     1     1    20 1   
     2     2    63 2   
     3     3     4 1   
     4     3    29 1   
     5     3    30 1   
     6     3    63 1   
     7     4     5 1   
     8     4    31 1   
     9     4    32 1   
    10     5     6 1   
    11     5    10 1   
    12     5    33 1   
    13     6     7 1   
    14     6    34 1   
    15     6    35 1   
    16     7     8 1   
    17     7    36 1   
    18     7    37 1   
    19     8     9 1   
    20     8    38 1   
    21     8    39 1   
    22     9    10 1   
    23     9    40 1   
    24     9    41 1   
    25    10    42 1   
    26    10    43 1   
    27    11    12 1   
    28    11    16 1   
    29    11    63 1   
    30    12    13 1   
    31    12    44 1   
    32    12    45 1   
    33    13    14 1   
    34    13    46 1   
    35    13    47 1   
    36    14    15 1   
    37    14    48 1   
    38    14    49 1   
    39    15    16 1   
    40    15    50 1   
    41    15    51 1   
    42    16    52 1   
    43    16    62 1   
    44    17    62 2   
    45    18    19 1   
    46    18    53 1   
    47    18    62 1   
    48    19    20 1   
    49    19    22 1   
    50    19    54 1   
    51    20    21 1   
    52    22    23 1   
    53    22    55 1   
    54    22    56 1   
    55    23    24 ar  
    56    23    28 ar  
    57    24    25 ar  
    58    24    57 1   
    59    25    26 ar  
    60    25    58 1   
    61    26    27 ar  
    62    26    59 1   
    63    27    28 ar  
    64    27    60 1   
    65    28    61 1   
@<TRIPOS>SUBSTRUCTURE
     1 I8F         1 TEMP              0 ****  ****    0 ROOT
