@<TRIPOS>MOLECULE
I8F
   63    65     1     0     0
SMALL
bcc


@<TRIPOS>ATOM
      1 O3          22.2170     9.5410    27.7920 o          1 I8F      -0.823300
      2 O22         20.0700     6.6010    22.4220 o          1 I8F      -0.604100
      3 C23         20.3140     4.3200    23.1100 c3         1 I8F      -0.155400
      4 C24         21.0240     4.0200    21.7900 c3         1 I8F      -0.060400
      5 C25         20.1250     3.4670    20.6770 c6         1 I8F      -0.056700
      6 C30         19.7120     2.0080    20.9570 c6         1 I8F      -0.073900
      7 C29         18.4270     1.5990    20.2260 c6         1 I8F      -0.072400
      8 C28         18.3160     2.3200    18.8900 c6         1 I8F      -0.073400
      9 C27         18.1800     3.8340    19.1060 c6         1 I8F      -0.072400
     10 C26         18.8870     4.3110    20.3840 c6         1 I8F      -0.073900
     11 N16         18.8690     5.9770    24.2220 n          1 I8F      -0.476800
     12 C17         18.4270     5.0030    25.2100 c6         1 I8F       0.097000
     13 C18         16.9560     4.6620    25.0290 c6         1 I8F      -0.098400
     14 C19         16.1140     5.9310    25.0750 c6         1 I8F      -0.074400
     15 C20         16.6330     6.9520    24.0690 c6         1 I8F      -0.075400
     16 C14         18.1270     7.2290    24.2410 c6         1 I8F       0.012700
     17 O15         17.6030     8.8860    25.8980 o          1 I8F      -0.657100
     18 N5          19.6370     7.9180    26.0170 ns         1 I8F      -0.520900
     19 C4          20.1130     8.6310    27.1800 c3         1 I8F      -0.038300
     20 C2          21.6600     8.6090    27.1920 c          1 I8F       0.928600
     21 O1          22.1970     7.6350    26.6250 o          1 I8F      -0.823300
     22 C6          19.5510     7.9740    28.4590 c3         1 I8F      -0.036100
     23 C7          19.7930     8.7600    29.7150 ca         1 I8F      -0.028300
     24 C12         20.7340     8.3520    30.6560 ca         1 I8F      -0.112500
     25 C11         20.9400     9.0780    31.8230 ca         1 I8F      -0.137000
     26 C10         20.2050    10.2310    32.0650 ca         1 I8F      -0.150000
     27 C9          19.2620    10.6490    31.1330 ca         1 I8F      -0.137000
     28 C8          19.0580     9.9160    29.9720 ca         1 I8F      -0.112500
     29 H2          19.5340     3.5770    23.2860 hc         1 I8F       0.060200
     30 H3          21.0170     4.1990    23.9410 hc         1 I8F       0.060200
     31 H4          21.8050     3.2790    21.9840 hc         1 I8F       0.053200
     32 H5          21.5390     4.9150    21.4380 hc         1 I8F       0.053200
     33 H6          20.7330     3.4690    19.7650 hc         1 I8F       0.040700
     34 H7          19.5760     1.8530    22.0320 hc         1 I8F       0.041950
     35 H8          20.5340     1.3500    20.6600 hc         1 I8F       0.041950
     36 H9          17.5540     1.8470    20.8380 hc         1 I8F       0.033200
     37 H10         18.4020     0.5160    20.0890 hc         1 I8F       0.033200
     38 H11         17.4700     1.9430    18.3110 hc         1 I8F       0.031700
     39 H12         19.2090     2.1030    18.2950 hc         1 I8F       0.031700
     40 H13         18.5880     4.3640    18.2420 hc         1 I8F       0.033200
     41 H14         17.1230     4.1070    19.1580 hc         1 I8F       0.033200
     42 H15         19.1540     5.3630    20.2840 hc         1 I8F       0.041950
     43 H16         18.1990     4.2500    21.2360 hc         1 I8F       0.041950
     44 H17         19.0460     4.1120    25.1690 h1         1 I8F       0.055200
     45 H18         18.5840     5.4270    26.2080 h1         1 I8F       0.055200
     46 H19         16.8180     4.1540    24.0690 hc         1 I8F       0.037200
     47 H20         16.6510     3.9630    25.8110 hc         1 I8F       0.037200
     48 H21         16.1480     6.3530    26.0850 hc         1 I8F       0.044700
     49 H22         15.0670     5.7040    24.8680 hc         1 I8F       0.044700
     50 H23         16.0760     7.8860    24.1370 hc         1 I8F       0.049700
     51 H24         16.4830     6.5710    23.0550 hc         1 I8F       0.049700
     52 H25         18.4690     7.8250    23.3940 h1         1 I8F       0.100700
     53 H26         20.2790     7.2340    25.6420 hn         1 I8F       0.345500
     54 H27         19.7640     9.6650    27.1310 h1         1 I8F       0.066700
     55 H28         18.4740     7.8460    28.3250 hc         1 I8F       0.034200
     56 H29         19.9760     6.9710    28.5540 hc         1 I8F       0.034200
     57 H30         21.3120     7.4530    30.4760 ha         1 I8F       0.131000
     58 H31         21.6740     8.7420    32.5430 ha         1 I8F       0.111000
     59 H32         20.3610    10.7970    32.9740 ha         1 I8F       0.108000
     60 H33         18.6790    11.5430    31.3150 ha         1 I8F       0.111000
     61 H34         18.3120    10.2430    29.2560 ha         1 I8F       0.131000
     62 C13         18.4240     8.0760    25.4840 c          1 I8F       0.647100
     63 C21         19.7390     5.7230    23.2060 c          1 I8F       0.679100
@<TRIPOS>BOND
     1     1    20 1   
     2     2    63 2   
     3     3     4 1   
     4     3    29 1   
     5     3    30 1   
     6     3    63 1   
     7     4     5 1   
     8     4    31 1   
     9     4    32 1   
    10     5     6 1   
    11     5    10 1   
    12     5    33 1   
    13     6     7 1   
    14     6    34 1   
    15     6    35 1   
    16     7     8 1   
    17     7    36 1   
    18     7    37 1   
    19     8     9 1   
    20     8    38 1   
    21     8    39 1   
    22     9    10 1   
    23     9    40 1   
    24     9    41 1   
    25    10    42 1   
    26    10    43 1   
    27    11    12 1   
    28    11    16 1   
    29    11    63 1   
    30    12    13 1   
    31    12    44 1   
    32    12    45 1   
    33    13    14 1   
    34    13    46 1   
    35    13    47 1   
    36    14    15 1   
    37    14    48 1   
    38    14    49 1   
    39    15    16 1   
    40    15    50 1   
    41    15    51 1   
    42    16    52 1   
    43    16    62 1   
    44    17    62 2   
    45    18    19 1   
    46    18    53 1   
    47    18    62 1   
    48    19    20 1   
    49    19    22 1   
    50    19    54 1   
    51    20    21 1   
    52    22    23 1   
    53    22    55 1   
    54    22    56 1   
    55    23    24 ar  
    56    23    28 ar  
    57    24    25 ar  
    58    24    57 1   
    59    25    26 ar  
    60    25    58 1   
    61    26    27 ar  
    62    26    59 1   
    63    27    28 ar  
    64    27    60 1   
    65    28    61 1   
@<TRIPOS>SUBSTRUCTURE
     1 I8F         1 TEMP              0 ****  ****    0 ROOT
