@<TRIPOS>MOLECULE
I8G
   30    31     1     0     0
SMALL
No Charge or Current Charge


@<TRIPOS>ATOM
      1 N1          14.3930    24.4490    21.1320 n          1 I8G      -0.425800
      2 C4          12.6250    21.5060    24.7580 ca         1 I8G       0.126100
      3 C5          13.6680    23.0110    23.0930 c3         1 I8G       0.078600
      4 C6          13.4960    23.4750    21.6220 c          1 I8G       0.607100
      5 C7          15.4980    25.0320    21.9270 c5         1 I8G       0.102000
      6 C8          16.3320    25.7400    20.8280 c5         1 I8G      -0.093900
      7 C10         14.3170    24.9880    19.7580 c5         1 I8G       0.102000
      8 C1          12.4530    20.3300    27.3110 ca         1 I8G       0.133000
      9 C2          11.5170    19.9920    26.3200 ca         1 I8G      -0.114000
     10 C3          11.6050    20.5820    25.0460 ca         1 I8G      -0.145000
     11 O1          12.6620    22.0510    23.4910 os         1 I8G      -0.308100
     12 O2          12.6150    23.0290    20.8930 o          1 I8G      -0.569100
     13 C9          15.2270    26.2370    19.8630 c5         1 I8G      -0.093900
     14 C11         13.5660    21.8430    25.7600 ca         1 I8G      -0.145000
     15 C12         13.4760    21.2520    27.0350 ca         1 I8G      -0.114000
     16 H3          13.6200    23.9040    23.7280 h1         1 I8G       0.048200
     17 H4          14.6710    22.5750    23.1860 h1         1 I8G       0.048200
     18 H5          15.1080    25.7500    22.6620 h1         1 I8G       0.051200
     19 H6          16.0890    24.2730    22.4550 h1         1 I8G       0.051200
     20 H7          16.9480    26.5530    21.2280 hc         1 I8G       0.056200
     21 H8          17.0050    25.0330    20.3280 hc         1 I8G       0.056200
     22 H11         13.2910    25.2520    19.4660 h1         1 I8G       0.051200
     23 H12         14.7100    24.2600    19.0360 h1         1 I8G       0.051200
     24 H1          10.7280    19.2770    26.5410 ha         1 I8G       0.131500
     25 H2          10.8820    20.3220    24.2770 ha         1 I8G       0.127000
     26 H9          14.6820    27.0880    20.2900 hc         1 I8G       0.056200
     27 H10         15.6200    26.5530    18.8900 hc         1 I8G       0.056200
     28 H13         14.3650    22.5530    25.5690 ha         1 I8G       0.127000
     29 H14         14.1960    21.5070    27.8080 ha         1 I8G       0.131500
     30 F1          12.3700    19.7650    28.5350 f          1 I8G      -0.181000
@<TRIPOS>BOND
     1     1     4 1   
     2     1     5 1   
     3     1     7 1   
     4     2    10 ar  
     5     2    11 1   
     6     2    14 ar  
     7     3     4 1   
     8     3    11 1   
     9     3    16 1   
    10     3    17 1   
    11     4    12 2   
    12     5     6 1   
    13     5    18 1   
    14     5    19 1   
    15     6    13 1   
    16     6    20 1   
    17     6    21 1   
    18     7    13 1   
    19     7    22 1   
    20     7    23 1   
    21     8     9 ar  
    22     8    15 ar  
    23     8    30 1   
    24     9    10 ar  
    25     9    24 1   
    26    10    25 1   
    27    13    26 1   
    28    13    27 1   
    29    14    15 ar  
    30    14    28 1   
    31    15    29 1   
@<TRIPOS>SUBSTRUCTURE
     1 I8G         1 TEMP              0 ****  ****    0 ROOT
