@<TRIPOS>MOLECULE
I8G
   30    31     1     0     0
SMALL
bcc


@<TRIPOS>ATOM
      1 N1          14.3510    24.3860    21.2210 n          1 I8G      -0.492800
      2 C4          12.7000    21.5800    24.6770 ca         1 I8G       0.126100
      3 C5          13.7220    23.0110    23.0990 c3         1 I8G       0.055400
      4 C6          13.5020    23.4460    21.6570 c          1 I8G       0.674100
      5 C7          15.4280    24.9980    21.9960 c5         1 I8G       0.102000
      6 C8          16.2540    25.7140    20.9340 c5         1 I8G      -0.093900
      7 C10         14.2600    24.9300    19.8690 c5         1 I8G       0.102000
      8 C1          12.4870    20.4180    27.1760 ca         1 I8G       0.097900
      9 C2          11.5490    20.1100    26.2060 ca         1 I8G      -0.132000
     10 C3          11.6590    20.6930    24.9570 ca         1 I8G      -0.163000
     11 O1          12.7170    22.0940    23.4290 os         1 I8G      -0.284900
     12 O2          12.6200    22.9660    20.9620 o          1 I8G      -0.569100
     13 C9          15.2080    26.1240    19.9020 c5         1 I8G      -0.093900
     14 C11         13.6330    21.8750    25.6660 ca         1 I8G      -0.163000
     15 C12         13.5240    21.2880    26.9240 ca         1 I8G      -0.132000
     16 H3          13.6970    23.8900    23.7570 h1         1 I8G       0.048200
     17 H4          14.7200    22.5640    23.1980 h1         1 I8G       0.048200
     18 H5          15.0260    25.7060    22.7270 h1         1 I8G       0.051200
     19 H6          16.0130    24.2530    22.5370 h1         1 I8G       0.051200
     20 H7          16.8100    26.5550    21.3460 hc         1 I8G       0.056200
     21 H8          16.9720    25.0210    20.4910 hc         1 I8G       0.056200
     22 H11         13.2360    25.2120    19.6270 h1         1 I8G       0.051200
     23 H12         14.5820    24.1840    19.1360 h1         1 I8G       0.051200
     24 H1          10.7410    19.4220    26.4210 ha         1 I8G       0.149500
     25 H2          10.9330    20.4630    24.1880 ha         1 I8G       0.145000
     26 H9          14.6770    27.0170    20.2370 hc         1 I8G       0.056200
     27 H10         15.6320    26.3370    18.9220 hc         1 I8G       0.056200
     28 H13         14.4540    22.5550    25.4880 ha         1 I8G       0.145000
     29 H14         14.2490    21.5170    27.6930 ha         1 I8G       0.149500
     30 F1          12.3800    19.8520    28.3920 f          1 I8G      -0.145900
@<TRIPOS>BOND
     1     1     4 1   
     2     1     5 1   
     3     1     7 1   
     4     2    10 ar  
     5     2    11 1   
     6     2    14 ar  
     7     3     4 1   
     8     3    11 1   
     9     3    16 1   
    10     3    17 1   
    11     4    12 2   
    12     5     6 1   
    13     5    18 1   
    14     5    19 1   
    15     6    13 1   
    16     6    20 1   
    17     6    21 1   
    18     7    13 1   
    19     7    22 1   
    20     7    23 1   
    21     8     9 ar  
    22     8    15 ar  
    23     8    30 1   
    24     9    10 ar  
    25     9    24 1   
    26    10    25 1   
    27    13    26 1   
    28    13    27 1   
    29    14    15 ar  
    30    14    28 1   
    31    15    29 1   
@<TRIPOS>SUBSTRUCTURE
     1 I8G         1 TEMP              0 ****  ****    0 ROOT
