@<TRIPOS>MOLECULE
I8H
   88    90     1     0     0
SMALL
No Charge or Current Charge


@<TRIPOS>ATOM
      1 N1         -15.7350     0.9460    -0.9790 n          1 I8H      -0.393800
      2 N3         -13.9970    -1.4500     1.2280 ns         1 I8H      -0.485900
      3 C4         -15.5770    -0.2970    -0.1640 c5         1 I8H       0.062700
      4 C5         -15.4990     2.2090    -0.3930 c          1 I8H       0.588100
      5 C6         -14.0800    -0.6350     0.1180 c          1 I8H       0.601100
      6 C7         -15.4690     3.4880    -1.3000 c3         1 I8H       0.060700
      7 C8         -14.0690     3.7530    -1.9840 c3         1 I8H      -0.045000
      8 C10        -12.9350     3.8200    -0.9210 c3         1 I8H      -0.088767
      9 C15        -17.4800     8.6410    -1.1650 c3         1 I8H      -0.104433
     10 C17        -19.3750     7.2690    -0.1590 c3         1 I8H      -0.104433
     11 C20        -12.4940    -1.1640     3.1780 c3         1 I8H      -0.073400
     12 C21        -12.4400     0.3890     3.0790 c5         1 I8H      -0.155700
     13 C22        -12.2640     1.0960     4.4290 c          1 I8H       0.563000
     14 C24        -11.2590     0.9640     2.2470 c5         1 I8H      -0.095400
     15 C26        -17.7830    -1.3020    -1.1370 cx         1 I8H      -0.076000
     16 C28        -18.5400    -2.5940    -1.4420 c3         1 I8H      -0.066600
     17 C1         -16.2690    -1.3810    -1.0120 cx         1 I8H      -0.124700
     18 C2         -16.8830    -0.7320    -2.2240 cx         1 I8H      -0.126700
     19 C3         -16.5930     0.7750    -2.1790 c5         1 I8H       0.135000
     20 N2         -15.9110     4.6460    -0.4840 ns         1 I8H      -0.498900
     21 C9         -12.7410    -1.9090     1.8380 c3         1 I8H       0.116700
     22 O1         -13.1020    -0.2710    -0.5250 o          1 I8H      -0.614100
     23 O2         -15.2710     2.2850     0.8120 o          1 I8H      -0.628100
     24 C11        -13.7230     2.6330    -3.0010 c3         1 I8H      -0.088767
     25 C12        -14.0900     5.0990    -2.7650 c3         1 I8H      -0.088767
     26 N4         -17.0130     6.5470     0.0810 ns         1 I8H      -0.518900
     27 C14        -17.9000     7.7150     0.0040 c3         1 I8H       0.153400
     28 O3         -17.3840     5.5600    -1.9620 o          1 I8H      -0.659100
     29 C16        -17.7510     8.4850     1.3370 c3         1 I8H      -0.104433
     30 C18        -12.7110    -3.4630     1.9950 c3         1 I8H       0.078300
     31 C19        -11.2700    -3.9890     2.3210 c          1 I8H       0.565100
     32 N5         -10.2800    -3.9370     1.3550 ns         1 I8H      -0.501900
     33 N6         -11.5420     2.2280     4.1680 ns         1 I8H      -0.518900
     34 C23        -11.2150     2.4300     2.7580 c5         1 I8H       0.100000
     35 O4         -10.9850    -4.4280     3.4250 o          1 I8H      -0.604100
     36 O5         -13.3270    -4.1300     0.8560 oh         1 I8H      -0.645000
     37 O6         -12.4740     0.6830     5.5580 o          1 I8H      -0.551000
     38 C25        -10.4790    -3.7840    -0.0910 c3         1 I8H       0.103300
     39 C27        -18.6440    -0.4100    -0.2250 c3         1 I8H      -0.066600
     40 H1         -14.8700    -1.7470     1.6460 hn         1 I8H       0.324500
     41 H2         -16.0680    -0.1780     0.8110 h1         1 I8H       0.082700
     42 H3         -16.2090     3.3400    -2.0940 h1         1 I8H       0.083700
     43 H4         -12.8160     2.8620    -0.4010 hc         1 I8H       0.039811
     44 H5         -11.9730     4.0590    -1.3910 hc         1 I8H       0.039811
     45 H6         -13.1390     4.5920    -0.1690 hc         1 I8H       0.039811
     46 H7         -18.0760     9.5620    -1.1630 hc         1 I8H       0.044256
     47 H8         -16.4230     8.9220    -1.0780 hc         1 I8H       0.044256
     48 H9         -17.6240     8.1570    -2.1370 hc         1 I8H       0.044256
     49 H10        -19.6630     6.5760     0.6410 hc         1 I8H       0.044256
     50 H11        -20.0490     8.1330    -0.1160 hc         1 I8H       0.044256
     51 H12        -19.5430     6.7680    -1.1190 hc         1 I8H       0.044256
     52 H13        -13.2860    -1.4510     3.8810 hc         1 I8H       0.069700
     53 H14        -11.5560    -1.5240     3.6200 hc         1 I8H       0.069700
     54 H15        -13.3740     0.7720     2.6500 hc         1 I8H       0.092700
     55 H16        -11.4120     0.9050     1.1650 hc         1 I8H       0.063200
     56 H17        -10.3200     0.4460     2.4760 hc         1 I8H       0.063200
     57 H18        -18.7650    -3.1460    -0.5210 hc         1 I8H       0.042367
     58 H19        -19.4890    -2.3840    -1.9510 hc         1 I8H       0.042367
     59 H20        -17.9590    -3.2590    -2.0920 hc         1 I8H       0.042367
     60 H21        -15.7990    -2.3570    -1.1240 hc         1 I8H       0.105700
     61 H22        -16.8390    -1.2540    -3.1770 hc         1 I8H       0.097700
     62 H23        -16.0650     1.0990    -3.0830 h1         1 I8H       0.062200
     63 H24        -17.5100     1.3740    -2.1060 h1         1 I8H       0.062200
     64 H25        -15.5320     4.7320     0.4490 hn         1 I8H       0.310500
     65 H26        -11.9180    -1.6330     1.1680 h1         1 I8H       0.088700
     66 H27        -13.6390     1.6550    -2.5150 hc         1 I8H       0.039811
     67 H28        -14.4850     2.5670    -3.7870 hc         1 I8H       0.039811
     68 H29        -12.7620     2.8340    -3.4910 hc         1 I8H       0.039811
     69 H30        -14.2160     5.9560    -2.0920 hc         1 I8H       0.039811
     70 H31        -13.1510     5.2510    -3.3110 hc         1 I8H       0.039811
     71 H32        -14.9080     5.1150    -3.4950 hc         1 I8H       0.039811
     72 H33        -16.4750     6.4380     0.9280 hn         1 I8H       0.306500
     73 H34        -18.0360     7.8550     2.1880 hc         1 I8H       0.044256
     74 H35        -16.7150     8.8120     1.4870 hc         1 I8H       0.044256
     75 H36        -18.3910     9.3760     1.3480 hc         1 I8H       0.044256
     76 H37        -13.3130    -3.6950     2.8850 h1         1 I8H       0.061700
     77 H38         -9.3650    -4.2420     1.6670 hn         1 I8H       0.310500
     78 H39        -11.2330     2.8040     4.9420 hn         1 I8H       0.324500
     79 H40        -10.2290     2.8900     2.6090 h1         1 I8H       0.042200
     80 H41        -11.9700     3.0530     2.2590 h1         1 I8H       0.042200
     81 H42        -13.4110    -5.0850     1.0780 ho         1 I8H       0.451000
     82 H43         -9.5000    -3.7430    -0.5860 h1         1 I8H       0.042700
     83 H44        -11.0370    -4.6440    -0.4820 h1         1 I8H       0.042700
     84 H45        -11.0240    -2.8600    -0.3150 h1         1 I8H       0.042700
     85 H46        -18.8670    -0.9240     0.7180 hc         1 I8H       0.042367
     86 H47        -18.1770     0.5450     0.0350 hc         1 I8H       0.042367
     87 H48        -19.6010    -0.1750    -0.7070 hc         1 I8H       0.042367
     88 C13        -16.8200     5.5880    -0.8820 c          1 I8H       0.650100
@<TRIPOS>BOND
     1     1     3 1   
     2     1     4 1   
     3     1    19 1   
     4     2     5 1   
     5     2    21 1   
     6     2    40 1   
     7     3     5 1   
     8     3    17 1   
     9     3    41 1   
    10     4     6 1   
    11     4    23 2   
    12     5    22 2   
    13     6     7 1   
    14     6    20 1   
    15     6    42 1   
    16     7     8 1   
    17     7    24 1   
    18     7    25 1   
    19     8    43 1   
    20     8    44 1   
    21     8    45 1   
    22     9    27 1   
    23     9    46 1   
    24     9    47 1   
    25     9    48 1   
    26    10    27 1   
    27    10    49 1   
    28    10    50 1   
    29    10    51 1   
    30    11    12 1   
    31    11    21 1   
    32    11    52 1   
    33    11    53 1   
    34    12    13 1   
    35    12    14 1   
    36    12    54 1   
    37    13    33 1   
    38    13    37 2   
    39    14    34 1   
    40    14    55 1   
    41    14    56 1   
    42    15    16 1   
    43    15    17 1   
    44    15    18 1   
    45    15    39 1   
    46    16    57 1   
    47    16    58 1   
    48    16    59 1   
    49    17    18 1   
    50    17    60 1   
    51    18    19 1   
    52    18    61 1   
    53    19    62 1   
    54    19    63 1   
    55    20    64 1   
    56    20    88 1   
    57    21    30 1   
    58    21    65 1   
    59    24    66 1   
    60    24    67 1   
    61    24    68 1   
    62    25    69 1   
    63    25    70 1   
    64    25    71 1   
    65    26    27 1   
    66    26    72 1   
    67    26    88 1   
    68    27    29 1   
    69    28    88 2   
    70    29    73 1   
    71    29    74 1   
    72    29    75 1   
    73    30    31 1   
    74    30    36 1   
    75    30    76 1   
    76    31    32 1   
    77    31    35 2   
    78    32    38 1   
    79    32    77 1   
    80    33    34 1   
    81    33    78 1   
    82    34    79 1   
    83    34    80 1   
    84    36    81 1   
    85    38    82 1   
    86    38    83 1   
    87    38    84 1   
    88    39    85 1   
    89    39    86 1   
    90    39    87 1   
@<TRIPOS>SUBSTRUCTURE
     1 I8H         1 TEMP              0 ****  ****    0 ROOT
