@<TRIPOS>MOLECULE
I8H
   88    90     1     0     0
SMALL
abcg2


@<TRIPOS>ATOM
      1 N1         -15.5120     1.3740    -1.0480 n          1 I8H      -0.393800
      2 N3         -14.2320    -0.7640     1.3010 ns         1 I8H      -0.485900
      3 C4         -15.7530     0.1010    -0.3790 c5         1 I8H       0.062700
      4 C5         -15.1320     2.4420    -0.3210 c          1 I8H       0.588100
      5 C6         -14.4210    -0.5510    -0.0070 c          1 I8H       0.601100
      6 C7         -14.8050     3.7510    -1.0440 c3         1 I8H       0.060700
      7 C8         -13.2730     4.0080    -1.1400 c3         1 I8H      -0.045000
      8 C10        -12.6040     4.2480     0.2160 c3         1 I8H      -0.088767
      9 C15        -19.2300     6.8880    -0.9610 c3         1 I8H      -0.104433
     10 C17        -19.6630     5.1630     0.8160 c3         1 I8H      -0.104433
     11 C20        -12.2770    -0.5170     2.7610 c3         1 I8H      -0.073400
     12 C21        -11.7280     0.6820     2.0060 c5         1 I8H      -0.155700
     13 C22        -11.0160     1.6770     2.9110 c          1 I8H       0.563000
     14 C24        -10.6790     0.3630     0.9410 c5         1 I8H      -0.095400
     15 C26        -17.7690    -0.2830    -1.9720 cx         1 I8H      -0.076000
     16 C28        -18.6200    -1.3710    -2.5880 c3         1 I8H      -0.066600
     17 C1         -16.4550    -0.7500    -1.4130 cx         1 I8H      -0.124700
     18 C2         -16.4910     0.0180    -2.7030 cx         1 I8H      -0.126700
     19 C3         -15.7970     1.3380    -2.4820 c5         1 I8H       0.135000
     20 N2         -15.4700     4.8510    -0.3900 ns         1 I8H      -0.498900
     21 C9         -13.0910    -1.4490     1.8630 c3         1 I8H       0.116700
     22 O1         -13.6180    -0.8560    -0.8770 o          1 I8H      -0.614100
     23 O2         -15.0360     2.3760     0.8990 o          1 I8H      -0.628100
     24 C11        -12.6010     2.8080    -1.8080 c3         1 I8H      -0.088767
     25 C12        -13.0530     5.2420    -2.0210 c3         1 I8H      -0.088767
     26 N4         -17.3590     5.9240     0.3420 ns         1 I8H      -0.518900
     27 C14        -18.7680     6.3260     0.3850 c3         1 I8H       0.153400
     28 O3         -17.4970     4.2610    -1.2120 o          1 I8H      -0.659100
     29 C16        -18.8530     7.4280     1.4410 c3         1 I8H      -0.104433
     30 C18        -13.5950    -2.6960     2.6090 c3         1 I8H       0.078300
     31 C19        -12.4540    -3.4490     3.2980 c          1 I8H       0.565100
     32 N5         -11.6540    -4.2420     2.5660 ns         1 I8H      -0.501900
     33 N6          -9.9460     2.1380     2.2410 ns         1 I8H      -0.518900
     34 C23         -9.7980     1.6130     0.9010 c5         1 I8H       0.100000
     35 O4         -12.2820    -3.3020     4.5020 o          1 I8H      -0.604100
     36 O5         -14.3160    -3.4810     1.6990 oh         1 I8H      -0.645000
     37 O6         -11.3630     2.0110     4.0320 o          1 I8H      -0.551000
     38 C25        -11.7030    -4.5840     1.1590 c3         1 I8H       0.103300
     39 C27        -18.5940     0.7910    -1.3060 c3         1 I8H      -0.066600
     40 H1         -14.9280    -0.4190     1.9460 hn         1 I8H       0.324500
     41 H2         -16.3730     0.2590     0.5080 h1         1 I8H       0.082700
     42 H3         -15.1630     3.7080    -2.0730 h1         1 I8H       0.083700
     43 H4         -12.6980     3.3930     0.8820 hc         1 I8H       0.039811
     44 H5         -11.5400     4.4290     0.0600 hc         1 I8H       0.039811
     45 H6         -12.9930     5.1250     0.7370 hc         1 I8H       0.039811
     46 H7         -20.2590     7.2450    -0.8850 hc         1 I8H       0.044256
     47 H8         -18.6060     7.7300    -1.2640 hc         1 I8H       0.044256
     48 H9         -19.1950     6.1350    -1.7460 hc         1 I8H       0.044256
     49 H10        -19.3300     4.7500     1.7690 hc         1 I8H       0.044256
     50 H11        -20.6880     5.5160     0.9450 hc         1 I8H       0.044256
     51 H12        -19.6770     4.3610     0.0800 hc         1 I8H       0.044256
     52 H13        -12.8970    -0.1800     3.5970 hc         1 I8H       0.069700
     53 H14        -11.4380    -1.0690     3.1910 hc         1 I8H       0.069700
     54 H15        -12.5600     1.2370     1.5540 hc         1 I8H       0.092700
     55 H16        -11.1060     0.1290    -0.0320 hc         1 I8H       0.063200
     56 H17        -10.0850    -0.4980     1.2590 hc         1 I8H       0.063200
     57 H18        -19.2570    -1.8410    -1.8360 hc         1 I8H       0.042367
     58 H19        -19.2690    -0.9590    -3.3630 hc         1 I8H       0.042367
     59 H20        -18.0130    -2.1550    -3.0440 hc         1 I8H       0.042367
     60 H21        -16.2550    -1.8150    -1.3980 hc         1 I8H       0.105700
     61 H22        -16.3050    -0.4730    -3.6510 hc         1 I8H       0.097700
     62 H23        -14.8800     1.3700    -3.0740 h1         1 I8H       0.062200
     63 H24        -16.4150     2.1900    -2.7690 h1         1 I8H       0.062200
     64 H25        -15.0050     5.2440     0.4130 hn         1 I8H       0.310500
     65 H26        -12.4700    -1.7620     1.0220 h1         1 I8H       0.088700
     66 H27        -12.6780     1.8970    -1.2110 hc         1 I8H       0.039811
     67 H28        -13.0260     2.6050    -2.7930 hc         1 I8H       0.039811
     68 H29        -11.5380     3.0100    -1.9470 hc         1 I8H       0.039811
     69 H30        -13.4820     6.1410    -1.5780 hc         1 I8H       0.039811
     70 H31        -11.9850     5.4170    -2.1570 hc         1 I8H       0.039811
     71 H32        -13.4980     5.1090    -3.0090 hc         1 I8H       0.039811
     72 H33        -16.7170     6.5240     0.8350 hn         1 I8H       0.306500
     73 H34        -18.5380     7.0640     2.4200 hc         1 I8H       0.044256
     74 H35        -18.2260     8.2820     1.1730 hc         1 I8H       0.044256
     75 H36        -19.8790     7.7850     1.5290 hc         1 I8H       0.044256
     76 H37        -14.2380    -2.3500     3.4300 h1         1 I8H       0.061700
     77 H38        -10.9510    -4.7220     3.1070 hn         1 I8H       0.310500
     78 H39         -9.3800     2.8940     2.5950 hn         1 I8H       0.324500
     79 H40         -8.7560     1.3850     0.6810 h1         1 I8H       0.042200
     80 H41        -10.1510     2.3320     0.1550 h1         1 I8H       0.042200
     81 H42        -14.8100    -4.1470     2.1880 ho         1 I8H       0.451000
     82 H43        -10.7300    -4.9880     0.8890 h1         1 I8H       0.042700
     83 H44        -12.4580    -5.3370     0.9360 h1         1 I8H       0.042700
     84 H45        -11.8800    -3.7190     0.5260 h1         1 I8H       0.042700
     85 H46        -19.1800     0.3620    -0.4900 hc         1 I8H       0.042367
     86 H47        -18.0130     1.6140    -0.8970 hc         1 I8H       0.042367
     87 H48        -19.2980     1.2200    -2.0220 hc         1 I8H       0.042367
     88 C13        -16.8320     4.9690    -0.4610 c          1 I8H       0.650100
@<TRIPOS>BOND
     1     1     3 1   
     2     1     4 1   
     3     1    19 1   
     4     2     5 1   
     5     2    21 1   
     6     2    40 1   
     7     3     5 1   
     8     3    17 1   
     9     3    41 1   
    10     4     6 1   
    11     4    23 2   
    12     5    22 2   
    13     6     7 1   
    14     6    20 1   
    15     6    42 1   
    16     7     8 1   
    17     7    24 1   
    18     7    25 1   
    19     8    43 1   
    20     8    44 1   
    21     8    45 1   
    22     9    27 1   
    23     9    46 1   
    24     9    47 1   
    25     9    48 1   
    26    10    27 1   
    27    10    49 1   
    28    10    50 1   
    29    10    51 1   
    30    11    12 1   
    31    11    21 1   
    32    11    52 1   
    33    11    53 1   
    34    12    13 1   
    35    12    14 1   
    36    12    54 1   
    37    13    33 1   
    38    13    37 2   
    39    14    34 1   
    40    14    55 1   
    41    14    56 1   
    42    15    16 1   
    43    15    17 1   
    44    15    18 1   
    45    15    39 1   
    46    16    57 1   
    47    16    58 1   
    48    16    59 1   
    49    17    18 1   
    50    17    60 1   
    51    18    19 1   
    52    18    61 1   
    53    19    62 1   
    54    19    63 1   
    55    20    64 1   
    56    20    88 1   
    57    21    30 1   
    58    21    65 1   
    59    24    66 1   
    60    24    67 1   
    61    24    68 1   
    62    25    69 1   
    63    25    70 1   
    64    25    71 1   
    65    26    27 1   
    66    26    72 1   
    67    26    88 1   
    68    27    29 1   
    69    28    88 2   
    70    29    73 1   
    71    29    74 1   
    72    29    75 1   
    73    30    31 1   
    74    30    36 1   
    75    30    76 1   
    76    31    32 1   
    77    31    35 2   
    78    32    38 1   
    79    32    77 1   
    80    33    34 1   
    81    33    78 1   
    82    34    79 1   
    83    34    80 1   
    84    36    81 1   
    85    38    82 1   
    86    38    83 1   
    87    38    84 1   
    88    39    85 1   
    89    39    86 1   
    90    39    87 1   
@<TRIPOS>SUBSTRUCTURE
     1 I8H         1 TEMP              0 ****  ****    0 ROOT
