@<TRIPOS>MOLECULE
I8N
   45    47     1     0     0
SMALL
abcg2


@<TRIPOS>ATOM
      1 N           13.2660   -17.7890    18.7320 nc         1 I8N      -0.518100
      2 C           17.5400   -14.1420    17.9550 c3         1 I8N      -0.049800
      3 O           13.4130   -23.3300    17.5860 os         1 I8N      -0.324100
      4 C1          16.4080   -15.1020    18.1790 ca         1 I8N      -0.064300
      5 C10         12.3610   -20.0440    16.3350 ca         1 I8N      -0.011300
      6 C11         12.2790   -21.2820    16.9610 ca         1 I8N      -0.219500
      7 C12         13.3960   -22.1130    17.0130 ca         1 I8N       0.159600
      8 C13         12.2270   -23.8060    18.1890 c3         1 I8N       0.145900
      9 C14         14.6070   -21.6930    16.4540 ca         1 I8N       0.026100
     10 C15         15.8730   -23.3720    15.4390 c3         1 I8N       0.148900
     11 C16         14.6820   -20.4490    15.8220 ca         1 I8N       0.159600
     12 C17         16.0290   -18.8660    14.6860 c3         1 I8N       0.145900
     13 C18         13.5560   -19.6310    15.7590 ca         1 I8N      -0.219500
     14 C2          16.5090   -16.0840    19.1800 ca         1 I8N      -0.114000
     15 C3          15.5000   -16.9950    19.4130 ca         1 I8N      -0.046000
     16 C4          15.2610   -15.0430    17.4010 ca         1 I8N      -0.080000
     17 C5          14.2450   -15.9630    17.6330 ca         1 I8N      -0.174000
     18 C6          14.3460   -16.9430    18.6300 ca         1 I8N       0.090400
     19 C7          12.3610   -17.5040    17.8660 cd         1 I8N       0.408200
     20 C8          11.1150   -18.2880    17.6480 c3         1 I8N      -0.097700
     21 C9          11.1770   -19.1190    16.3520 c3         1 I8N      -0.030100
     22 O1          15.7090   -22.4870    16.5380 os         1 I8N      -0.327100
     23 O2          15.8850   -20.1240    15.3130 os         1 I8N      -0.324100
     24 S           12.7250   -16.1400    16.8260 ss         1 I8N      -0.015200
     25 H           17.7970   -13.6130    18.8740 hc         1 I8N       0.044700
     26 H1          18.4390   -14.6660    17.6260 hc         1 I8N       0.044700
     27 H2          17.2930   -13.3990    17.1990 hc         1 I8N       0.044700
     28 H8          11.3380   -21.5860    17.4020 ha         1 I8N       0.119500
     29 H10         12.4590   -24.7900    18.5890 h1         1 I8N       0.040867
     30 H11         11.8980   -23.1630    19.0100 h1         1 I8N       0.040867
     31 H9          11.4110   -23.9020    17.4690 h1         1 I8N       0.040867
     32 H14         16.7870   -23.9360    15.6130 h1         1 I8N       0.031700
     33 H13         15.0400   -24.0750    15.3540 h1         1 I8N       0.031700
     34 H12         15.9710   -22.8320    14.4940 h1         1 I8N       0.031700
     35 H17         17.0650   -18.8000    14.3640 h1         1 I8N       0.040867
     36 H16         15.3820   -18.7680    13.8100 h1         1 I8N       0.040867
     37 H15         15.8190   -18.0410    15.3720 h1         1 I8N       0.040867
     38 H18         13.6000   -18.6660    15.2720 ha         1 I8N       0.119500
     39 H3          17.4080   -16.1250    19.7830 ha         1 I8N       0.117000
     40 H4          15.5950   -17.7450    20.1880 ha         1 I8N       0.135000
     41 H5          15.1650   -14.2950    16.6240 ha         1 I8N       0.121000
     42 H6          10.2500   -17.6220    17.6060 hc         1 I8N       0.068700
     43 H19         10.9810   -18.9500    18.5050 hc         1 I8N       0.068700
     44 H7          11.2070   -18.4490    15.4900 hc         1 I8N       0.053200
     45 H20         10.2480   -19.6870    16.2760 hc         1 I8N       0.053200
@<TRIPOS>BOND
     1     1    18 1   
     2     1    19 2   
     3     2     4 1   
     4     2    25 1   
     5     2    26 1   
     6     2    27 1   
     7     3     7 1   
     8     3     8 1   
     9     4    14 ar  
    10     4    16 ar  
    11     5     6 ar  
    12     5    13 ar  
    13     5    21 1   
    14     6     7 ar  
    15     6    28 1   
    16     7     9 ar  
    17     8    29 1   
    18     8    30 1   
    19     8    31 1   
    20     9    11 ar  
    21     9    22 1   
    22    10    22 1   
    23    10    32 1   
    24    10    33 1   
    25    10    34 1   
    26    11    13 ar  
    27    11    23 1   
    28    12    23 1   
    29    12    35 1   
    30    12    36 1   
    31    12    37 1   
    32    13    38 1   
    33    14    15 ar  
    34    14    39 1   
    35    15    18 ar  
    36    15    40 1   
    37    16    17 ar  
    38    16    41 1   
    39    17    18 ar  
    40    17    24 1   
    41    19    20 1   
    42    19    24 1   
    43    20    21 1   
    44    20    42 1   
    45    20    43 1   
    46    21    44 1   
    47    21    45 1   
@<TRIPOS>SUBSTRUCTURE
     1 I8N         1 TEMP              0 ****  ****    0 ROOT
