@<TRIPOS>MOLECULE
I8N
   45    47     1     0     0
SMALL
No Charge or Current Charge


@<TRIPOS>ATOM
      1 N           13.3530   -17.8080    18.7900 nc         1 I8N      -0.518100
      2 C           17.6620   -14.2880    17.4110 c3         1 I8N      -0.049800
      3 O           12.9780   -23.6180    17.4040 os         1 I8N      -0.324100
      4 C1          16.5280   -15.2230    17.8000 ca         1 I8N      -0.064300
      5 C10         12.1570   -20.1100    16.5010 ca         1 I8N      -0.011300
      6 C11         12.0200   -21.4130    16.9950 ca         1 I8N      -0.219500
      7 C12         13.0970   -22.3230    16.9240 ca         1 I8N       0.159600
      8 C13         11.7650   -24.1210    17.9920 c3         1 I8N       0.145900
      9 C14         14.3370   -21.9260    16.3660 ca         1 I8N       0.026100
     10 C15         16.6690   -22.6950    15.8190 c3         1 I8N       0.148900
     11 C16         14.4800   -20.5920    15.8740 ca         1 I8N       0.159600
     12 C17         15.9440   -18.7720    15.0290 c3         1 I8N       0.145900
     13 C18         13.3760   -19.7120    15.9330 ca         1 I8N      -0.219500
     14 C2          16.7170   -16.1880    18.8140 ca         1 I8N      -0.114000
     15 C3          15.6710   -17.0620    19.1730 ca         1 I8N      -0.046000
     16 C4          15.2820   -15.1390    17.1470 ca         1 I8N      -0.080000
     17 C5          14.2590   -16.0210    17.5270 ca         1 I8N      -0.174000
     18 C6          14.4320   -16.9720    18.5170 ca         1 I8N       0.090400
     19 C7          12.3760   -17.4430    17.9470 cd         1 I8N       0.408200
     20 C8          11.0950   -18.2350    17.8750 c3         1 I8N      -0.097700
     21 C9          11.0020   -19.1190    16.6070 c3         1 I8N      -0.030100
     22 O1          15.3470   -22.8910    16.3510 os         1 I8N      -0.327100
     23 O2          15.6860   -20.1510    15.3520 os         1 I8N      -0.324100
     24 S           12.6530   -16.0800    16.8310 ss         1 I8N      -0.015200
     25 H           18.3130   -14.0700    18.2670 hc         1 I8N       0.044700
     26 H1          18.2820   -14.7330    16.6230 hc         1 I8N       0.044700
     27 H2          17.2810   -13.3300    17.0360 hc         1 I8N       0.044700
     28 H8          11.0710   -21.7030    17.4350 ha         1 I8N       0.119500
     29 H10         11.8960   -25.1660    18.2980 h1         1 I8N       0.040867
     30 H11         11.4930   -23.5390    18.8820 h1         1 I8N       0.040867
     31 H9          10.9360   -24.0780    17.2740 h1         1 I8N       0.040867
     32 H14         17.2540   -23.6180    15.9190 h1         1 I8N       0.031700
     33 H13         16.6290   -22.4380    14.7530 h1         1 I8N       0.031700
     34 H12         17.1980   -21.9030    16.3640 h1         1 I8N       0.031700
     35 H17         16.9800   -18.6500    14.6890 h1         1 I8N       0.040867
     36 H16         15.2830   -18.4270    14.2250 h1         1 I8N       0.040867
     37 H15         15.7980   -18.1310    15.9090 h1         1 I8N       0.040867
     38 H18         13.4530   -18.7000    15.5510 ha         1 I8N       0.119500
     39 H3          17.6760   -16.2650    19.3220 ha         1 I8N       0.117000
     40 H4          15.8220   -17.8070    19.9500 ha         1 I8N       0.135000
     41 H5          15.1140   -14.4060    16.3610 ha         1 I8N       0.121000
     42 H6          10.2410   -17.5490    17.8950 hc         1 I8N       0.068700
     43 H19         10.9970   -18.8740    18.7610 hc         1 I8N       0.068700
     44 H7          10.9760   -18.4760    15.7190 hc         1 I8N       0.053200
     45 H20         10.0430   -19.6530    16.6170 hc         1 I8N       0.053200
@<TRIPOS>BOND
     1     1    18 1   
     2     1    19 2   
     3     2     4 1   
     4     2    25 1   
     5     2    26 1   
     6     2    27 1   
     7     3     7 1   
     8     3     8 1   
     9     4    14 ar  
    10     4    16 ar  
    11     5     6 ar  
    12     5    13 ar  
    13     5    21 1   
    14     6     7 ar  
    15     6    28 1   
    16     7     9 ar  
    17     8    29 1   
    18     8    30 1   
    19     8    31 1   
    20     9    11 ar  
    21     9    22 1   
    22    10    22 1   
    23    10    32 1   
    24    10    33 1   
    25    10    34 1   
    26    11    13 ar  
    27    11    23 1   
    28    12    23 1   
    29    12    35 1   
    30    12    36 1   
    31    12    37 1   
    32    13    38 1   
    33    14    15 ar  
    34    14    39 1   
    35    15    18 ar  
    36    15    40 1   
    37    16    17 ar  
    38    16    41 1   
    39    17    18 ar  
    40    17    24 1   
    41    19    20 1   
    42    19    24 1   
    43    20    21 1   
    44    20    42 1   
    45    20    43 1   
    46    21    44 1   
    47    21    45 1   
@<TRIPOS>SUBSTRUCTURE
     1 I8N         1 TEMP              0 ****  ****    0 ROOT
