@<TRIPOS>MOLECULE
I8Q
   30    32     1     0     0
SMALL
bcc


@<TRIPOS>ATOM
      1 C1          20.4580   -66.4020    53.4650 ca         1 I8Q       0.188100
      2 C2          20.5570   -67.4690    54.3990 ca         1 I8Q       0.094600
      3 C3          22.6950   -66.8130    52.7130 ca         1 I8Q       0.006000
      4 O5          20.3930   -65.0980    50.5280 o          1 I8Q      -0.683867
      5 C8          23.2930   -71.2300    56.1840 ca         1 I8Q      -0.094000
      6 C11         25.3530   -70.5760    54.4400 ca         1 I8Q      -0.094000
      7 C12         24.1810   -69.8250    54.4410 ca         1 I8Q      -0.118600
      8 C13         24.0510   -68.6800    53.5130 c          1 I8Q       0.592300
      9 O           22.7650   -64.5890    50.9140 o          1 I8Q      -0.683867
     10 O4          21.0510   -63.5170    52.3100 o          1 I8Q      -0.683867
     11 C           21.5290   -66.0590    52.6630 ca         1 I8Q      -0.209500
     12 C4          22.7950   -67.9040    53.5510 ca         1 I8Q      -0.184600
     13 O2          24.9540   -68.3900    52.7520 o          1 I8Q      -0.525100
     14 C10         25.4930   -71.6460    55.3070 ca         1 I8Q      -0.127000
     15 C9          24.4620   -71.9720    56.1810 ca         1 I8Q      -0.133000
     16 C7          23.1440   -70.1510    55.3150 ca         1 I8Q      -0.125600
     17 C6          21.8730   -69.3820    55.3350 c          1 I8Q       0.607300
     18 O3          20.9900   -69.7200    56.1090 o          1 I8Q      -0.578100
     19 C5          21.7300   -68.2440    54.4160 ca         1 I8Q      -0.173600
     20 N           19.4550   -67.7040    55.1800 nv         1 I8Q      -0.848200
     21 O1          19.3160   -65.7080    53.3720 oh         1 I8Q      -0.465100
     22 H3          23.5230   -66.5520    52.0710 ha         1 I8Q       0.185000
     23 H4          22.4930   -71.4890    56.8640 ha         1 I8Q       0.148000
     24 H7          26.1530   -70.3220    53.7590 ha         1 I8Q       0.153000
     25 H6          26.4050   -72.2280    55.3030 ha         1 I8Q       0.127000
     26 H5          24.5700   -72.8070    56.8590 ha         1 I8Q       0.125000
     27 H1          19.5630   -68.4520    55.8480 hn         1 I8Q       0.405300
     28 H2          19.0150   -66.8910    55.5870 hn         1 I8Q       0.405300
     29 H           18.5680   -66.2460    53.6660 ho         1 I8Q       0.424000
     30 S           21.4170   -64.6850    51.4980 s6         1 I8Q       1.265100
@<TRIPOS>BOND
     1     1     2 ar  
     2     1    11 ar  
     3     1    21 1   
     4     2    19 ar  
     5     2    20 1   
     6     3    11 ar  
     7     3    12 ar  
     8     3    22 1   
     9     4    30 1   
    10     5    15 ar  
    11     5    16 ar  
    12     5    23 1   
    13     6     7 ar  
    14     6    14 ar  
    15     6    24 1   
    16     7     8 1   
    17     7    16 ar  
    18     8    12 1   
    19     8    13 2   
    20     9    30 1   
    21    10    30 1   
    22    11    30 1   
    23    12    19 ar  
    24    14    15 ar  
    25    14    25 1   
    26    15    26 1   
    27    16    17 1   
    28    17    18 2   
    29    17    19 1   
    30    20    27 1   
    31    20    28 1   
    32    21    29 1   
@<TRIPOS>SUBSTRUCTURE
     1 I8Q         1 TEMP              0 ****  ****    0 ROOT
