@<TRIPOS>MOLECULE
I8Q
   30    32     1     0     0
SMALL
No Charge or Current Charge


@<TRIPOS>ATOM
      1 C1          20.4290   -66.3400    53.4400 ca         1 I8Q       0.188100
      2 C2          20.5270   -67.4290    54.3550 ca         1 I8Q       0.233000
      3 C3          22.6750   -66.7890    52.6570 ca         1 I8Q       0.024000
      4 O5          20.2790   -64.9970    50.5440 o          1 I8Q      -0.683867
      5 C8          23.3120   -71.3020    56.2060 ca         1 I8Q      -0.076000
      6 C11         25.4030   -70.6020    54.4820 ca         1 I8Q      -0.076000
      7 C12         24.2090   -69.8440    54.4680 ca         1 I8Q      -0.118600
      8 C13         24.0790   -68.6740    53.5290 c          1 I8Q       0.592300
      9 O           22.7260   -64.6010    50.7700 o          1 I8Q      -0.683867
     10 O4          21.1350   -63.4560    52.3040 o          1 I8Q      -0.683867
     11 C           21.5050   -66.0100    52.5960 ca         1 I8Q      -0.209500
     12 C4          22.7880   -67.8870    53.5380 ca         1 I8Q      -0.184600
     13 O2          24.9980   -68.3690    52.7760 o          1 I8Q      -0.525100
     14 C10         25.5480   -71.6960    55.3480 ca         1 I8Q      -0.109000
     15 C9          24.5020   -72.0460    56.2100 ca         1 I8Q      -0.115000
     16 C7          23.1500   -70.1950    55.3380 ca         1 I8Q      -0.125600
     17 C6          21.8540   -69.4110    55.3570 c          1 I8Q       0.607300
     18 O3          20.9650   -69.7520    56.1320 o          1 I8Q      -0.578100
     19 C5          21.7090   -68.2250    54.4040 ca         1 I8Q      -0.173600
     20 N           19.4540   -67.6870    55.1930 nv         1 I8Q      -0.777000
     21 O1          19.2530   -65.6350    53.3700 oh         1 I8Q      -0.504100
     22 H3          23.5120   -66.5450    52.0050 ha         1 I8Q       0.167000
     23 H4          22.5130   -71.5930    56.8850 ha         1 I8Q       0.130000
     24 H7          26.2280   -70.3460    53.8190 ha         1 I8Q       0.135000
     25 H6          26.4710   -72.2710    55.3500 ha         1 I8Q       0.109000
     26 H5          24.6110   -72.8940    56.8830 ha         1 I8Q       0.107000
     27 H1          19.5580   -68.4730    55.8310 hn         1 I8Q       0.300500
     28 H2          18.8860   -66.9160    55.5280 hn         1 I8Q       0.300500
     29 H           18.5670   -66.1730    53.8170 ho         1 I8Q       0.463000
     30 S           21.4000   -64.5920    51.4070 s6         1 I8Q       1.265100
@<TRIPOS>BOND
     1     1     2 ar  
     2     1    11 ar  
     3     1    21 1   
     4     2    19 ar  
     5     2    20 1   
     6     3    11 ar  
     7     3    12 ar  
     8     3    22 1   
     9     4    30 1   
    10     5    15 ar  
    11     5    16 ar  
    12     5    23 1   
    13     6     7 ar  
    14     6    14 ar  
    15     6    24 1   
    16     7     8 1   
    17     7    16 ar  
    18     8    12 1   
    19     8    13 2   
    20     9    30 1   
    21    10    30 1   
    22    11    30 1   
    23    12    19 ar  
    24    14    15 ar  
    25    14    25 1   
    26    15    26 1   
    27    16    17 1   
    28    17    18 2   
    29    17    19 1   
    30    20    27 1   
    31    20    28 1   
    32    21    29 1   
@<TRIPOS>SUBSTRUCTURE
     1 I8Q         1 TEMP              0 ****  ****    0 ROOT
