@<TRIPOS>MOLECULE
I8R
   47    49     1     0     0
SMALL
bcc


@<TRIPOS>ATOM
      1 C8          15.0560   -21.3960    14.7330 ca         1 I8R       0.136100
      2 C5          12.3560   -18.5780    17.1320 cc         1 I8R       0.413200
      3 C6          13.5970   -19.8640    15.8430 ca         1 I8R       0.144400
      4 C2          13.2110   -16.3280    18.9510 ca         1 I8R      -0.082300
      5 C4          11.4280   -17.4860    17.5420 c3         1 I8R      -0.101700
      6 C7          14.2260   -20.2910    14.6730 ca         1 I8R      -0.180000
      7 C           15.2900   -16.1660    20.1970 ca         1 I8R       0.112100
      8 C1          13.9810   -16.6020    20.0830 ca         1 I8R      -0.188000
      9 C10         15.2570   -22.0820    15.9560 ca         1 I8R       0.064100
     10 C12         14.6220   -21.6630    17.1160 ca         1 I8R       0.160100
     11 C14         13.7870   -20.5480    17.0460 ca         1 I8R      -0.120100
     12 C15         13.7930   -15.5980    17.9270 ca         1 I8R      -0.116000
     13 C16         15.1120   -15.1590    18.0230 ca         1 I8R      -0.183000
     14 C17         15.8740   -15.4370    19.1470 ca         1 I8R       0.113100
     15 C18         17.8110   -14.3990    18.2720 c3         1 I8R       0.122700
     16 C3          11.7910   -16.8240    18.8740 c3         1 I8R      -0.023100
     17 N           12.7810   -18.7600    15.9330 nd         1 I8R      -0.547100
     18 O           16.0630   -16.4140    21.2750 oh         1 I8R      -0.475100
     19 O1          15.7240   -21.9040    13.6850 os         1 I8R      -0.300900
     20 O3          14.8650   -22.3090    18.2790 os         1 I8R      -0.313900
     21 S           12.9160   -19.7490    18.3070 ss         1 I8R      -0.090100
     22 H3          11.4030   -16.7560    16.7320 hc         1 I8R       0.068700
     23 H19         10.4150   -17.8930    17.6170 hc         1 I8R       0.068700
     24 H4          14.0610   -19.7410    13.7570 ha         1 I8R       0.157000
     25 H1          13.5470   -17.1780    20.8950 ha         1 I8R       0.129000
     26 H9          16.3500   -25.1240    15.7260 h1         1 I8R       0.034033
     27 H8          14.7560   -24.6720    16.3530 h1         1 I8R       0.034033
     28 H10         15.1480   -24.3960    14.6450 h1         1 I8R       0.034033
     29 H11         14.1690   -23.5970    19.6780 h1         1 I8R       0.039367
     30 H13         12.9630   -22.4120    19.1630 h1         1 I8R       0.039367
     31 H12         13.3830   -23.7680    18.0970 h1         1 I8R       0.039367
     32 H14         13.2330   -15.3560    17.0320 ha         1 I8R       0.134000
     33 H15         15.5320   -14.5990    17.1980 ha         1 I8R       0.137000
     34 H16         18.8310   -14.2180    18.6020 h1         1 I8R       0.039033
     35 H17         17.8370   -15.0050    17.3610 h1         1 I8R       0.039033
     36 H18         17.3430   -13.4390    18.0390 h1         1 I8R       0.039033
     37 H2          11.0910   -15.9990    19.0320 hc         1 I8R       0.051700
     38 H20         11.6070   -17.5240    19.6930 hc         1 I8R       0.051700
     39 H6          16.1920   -21.8360    11.7290 h1         1 I8R       0.043700
     40 H7          14.5400   -21.2940    12.0810 h1         1 I8R       0.043700
     41 H5          15.9220   -20.2380    12.4480 h1         1 I8R       0.043700
     42 H           15.5660   -16.9210    21.9280 ho         1 I8R       0.419000
     43 O2          16.1180   -23.1280    15.9970 os         1 I8R      -0.306900
     44 O4          17.1580   -15.0670    19.3300 os         1 I8R      -0.295900
     45 C11         15.5510   -24.3880    15.6600 c3         1 I8R       0.128700
     46 C13         13.7790   -23.0530    18.8210 c3         1 I8R       0.123700
     47 C9          15.5760   -21.2750    12.4280 c3         1 I8R       0.120700
@<TRIPOS>BOND
     1     1     6 ar  
     2     1     9 ar  
     3     1    19 1   
     4     2     5 1   
     5     2    17 2   
     6     2    21 1   
     7     3     6 ar  
     8     3    11 ar  
     9     3    17 1   
    10     4     8 ar  
    11     4    12 ar  
    12     4    16 1   
    13     5    16 1   
    14     5    22 1   
    15     5    23 1   
    16     6    24 1   
    17     7     8 ar  
    18     7    14 ar  
    19     7    18 1   
    20     8    25 1   
    21     9    10 ar  
    22     9    43 1   
    23    10    11 ar  
    24    10    20 1   
    25    11    21 1   
    26    12    13 ar  
    27    12    32 1   
    28    13    14 ar  
    29    13    33 1   
    30    14    44 1   
    31    15    34 1   
    32    15    35 1   
    33    15    36 1   
    34    15    44 1   
    35    16    37 1   
    36    16    38 1   
    37    18    42 1   
    38    19    47 1   
    39    20    46 1   
    40    26    45 1   
    41    27    45 1   
    42    28    45 1   
    43    29    46 1   
    44    30    46 1   
    45    31    46 1   
    46    39    47 1   
    47    40    47 1   
    48    41    47 1   
    49    43    45 1   
@<TRIPOS>SUBSTRUCTURE
     1 I8R         1 TEMP              0 ****  ****    0 ROOT
