@<TRIPOS>MOLECULE
I8R
   47    49     1     0     0
SMALL
No Charge or Current Charge


@<TRIPOS>ATOM
      1 C8          14.7260   -21.4940    15.1870 ca         1 I8R       0.136100
      2 C5          12.0580   -18.4140    17.3670 cc         1 I8R       0.413200
      3 C6          13.3400   -19.7620    16.1980 ca         1 I8R       0.144400
      4 C2          13.3110   -16.1320    18.9030 ca         1 I8R      -0.082300
      5 C4          11.2920   -17.1730    17.7410 c3         1 I8R      -0.101700
      6 C7          14.1470   -20.2020    15.1500 ca         1 I8R      -0.162000
      7 C           15.6390   -16.5890    19.4840 ca         1 I8R       0.112100
      8 C1          14.2700   -16.8930    19.5970 ca         1 I8R      -0.170000
      9 C10         14.4800   -22.3560    16.3130 ca         1 I8R       0.064100
     10 C12         13.6440   -21.8710    17.3730 ca         1 I8R       0.160100
     11 C14         13.1020   -20.5820    17.2720 ca         1 I8R      -0.247000
     12 C15         13.7300   -15.0610    18.0940 ca         1 I8R      -0.098000
     13 C16         15.0950   -14.7480    17.9750 ca         1 I8R      -0.165000
     14 C17         16.0630   -15.5100    18.6690 ca         1 I8R       0.113100
     15 C18         17.9320   -14.1590    17.7680 c3         1 I8R       0.145900
     16 C3          11.8300   -16.4740    19.0110 c3         1 I8R      -0.023100
     17 N           12.7470   -18.5090    16.2210 nd         1 I8R      -0.547100
     18 O           16.5480   -17.3490    20.1710 oh         1 I8R      -0.514100
     19 O1          15.5270   -21.9120    14.1350 os         1 I8R      -0.324100
     20 O3          13.3050   -22.5700    18.5280 os         1 I8R      -0.337100
     21 S           12.0580   -19.8140    18.4630 ss         1 I8R       0.036800
     22 H3          11.3130   -16.4610    16.9070 hc         1 I8R       0.068700
     23 H19         10.2380   -17.4330    17.8950 hc         1 I8R       0.068700
     24 H4          14.3110   -19.5240    14.3180 ha         1 I8R       0.139000
     25 H1          13.9500   -17.7240    20.2200 ha         1 I8R       0.111000
     26 H9          16.1360   -25.2910    15.8130 h1         1 I8R       0.034033
     27 H8          15.3630   -24.3950    14.4950 h1         1 I8R       0.034033
     28 H10         16.8020   -23.7240    15.3250 h1         1 I8R       0.034033
     29 H11         13.3270   -24.2090    19.8190 h1         1 I8R       0.039367
     30 H13         13.3960   -24.6220    18.0970 h1         1 I8R       0.039367
     31 H12         14.8350   -23.9500    18.9250 h1         1 I8R       0.039367
     32 H14         12.9960   -14.4680    17.5530 ha         1 I8R       0.116000
     33 H15         15.3810   -13.9140    17.3410 ha         1 I8R       0.119000
     34 H16         19.0260   -14.1210    17.8390 h1         1 I8R       0.039033
     35 H17         17.6650   -14.3020    16.7130 h1         1 I8R       0.039033
     36 H18         17.5350   -13.1930    18.1060 h1         1 I8R       0.039033
     37 H2          11.2480   -15.5610    19.1860 hc         1 I8R       0.051700
     38 H20         11.6470   -17.1170    19.8810 hc         1 I8R       0.051700
     39 H6          16.4660   -21.6410    12.2890 h1         1 I8R       0.043700
     40 H7          14.8900   -20.8390    12.4480 h1         1 I8R       0.043700
     41 H5          16.3260   -20.1730    13.2760 h1         1 I8R       0.043700
     42 H           16.0630   -18.0360    20.6750 ho         1 I8R       0.458000
     43 O2          15.0150   -23.6420    16.4230 os         1 I8R      -0.330100
     44 O4          17.4180   -15.2330    18.5750 os         1 I8R      -0.319100
     45 C11         15.8700   -24.2870    15.4620 c3         1 I8R       0.151900
     46 C13         13.7410   -23.9020    18.8500 c3         1 I8R       0.146900
     47 C9          15.8130   -21.0980    12.9830 c3         1 I8R       0.143900
@<TRIPOS>BOND
     1     1     6 ar  
     2     1     9 ar  
     3     1    19 1   
     4     2     5 1   
     5     2    17 2   
     6     2    21 1   
     7     3     6 ar  
     8     3    11 ar  
     9     3    17 1   
    10     4     8 ar  
    11     4    12 ar  
    12     4    16 1   
    13     5    16 1   
    14     5    22 1   
    15     5    23 1   
    16     6    24 1   
    17     7     8 ar  
    18     7    14 ar  
    19     7    18 1   
    20     8    25 1   
    21     9    10 ar  
    22     9    43 1   
    23    10    11 ar  
    24    10    20 1   
    25    11    21 1   
    26    12    13 ar  
    27    12    32 1   
    28    13    14 ar  
    29    13    33 1   
    30    14    44 1   
    31    15    34 1   
    32    15    35 1   
    33    15    36 1   
    34    15    44 1   
    35    16    37 1   
    36    16    38 1   
    37    18    42 1   
    38    19    47 1   
    39    20    46 1   
    40    26    45 1   
    41    27    45 1   
    42    28    45 1   
    43    29    46 1   
    44    30    46 1   
    45    31    46 1   
    46    39    47 1   
    47    40    47 1   
    48    41    47 1   
    49    43    45 1   
@<TRIPOS>SUBSTRUCTURE
     1 I8R         1 TEMP              0 ****  ****    0 ROOT
