@<TRIPOS>MOLECULE
I8T
   40    42     1     0     0
SMALL
bcc


@<TRIPOS>ATOM
      1 C2          10.0410   -24.9710    -6.3910 cc         1 I8T       0.741800
      2 C4          10.9320   -24.9450    -8.6530 c          1 I8T       0.636000
      3 C6          10.0790   -21.6610    -9.8460 ca         1 I8T       0.268900
      4 C7           9.4210   -21.1270    -8.7270 ca         1 I8T       0.314500
      5 N            8.3060   -19.3260    -9.8490 ns         1 I8T      -0.526900
      6 C            6.5970   -18.1480   -11.1120 c          1 I8T       0.925600
      7 OXT          5.5820   -17.4570   -10.9360 o          1 I8T      -0.820800
      8 N1           9.5720   -23.7520    -6.4330 nd         1 I8T      -0.765700
      9 N2           9.8830   -25.7010    -5.2910 nv         1 I8T      -0.955800
     10 N3          10.6970   -25.5570    -7.4400 ns         1 I8T      -0.529400
     11 CD1          7.9710   -15.1150   -11.9580 ca         1 I8T      -0.075500
     12 CE1          7.5110   -13.8160   -12.1130 ca         1 I8T      -0.196000
     13 CZ           7.3820   -12.9880   -11.0010 ca         1 I8T       0.113100
     14 OH           6.9350   -11.7290   -11.1970 oh         1 I8T      -0.511100
     15 CE2          7.7200   -13.4800    -9.7430 ca         1 I8T      -0.196000
     16 CD2          8.1810   -14.7820    -9.6090 ca         1 I8T      -0.075500
     17 CG           8.3150   -15.6250   -10.7090 ca         1 I8T      -0.069300
     18 CB           8.8070   -17.0340   -10.5430 c3         1 I8T      -0.030100
     19 CA           7.7240   -18.0160   -10.0590 c3         1 I8T      -0.038300
     20 CAL          8.8890   -19.7150    -8.7140 c          1 I8T       0.562600
     21 OAQ          9.0010   -19.0290    -7.7100 o          1 I8T      -0.601100
     22 N8           9.2720   -21.8050    -7.6120 nb         1 I8T      -0.603000
     23 C8A          9.7490   -23.0560    -7.5750 ca         1 I8T       0.581000
     24 O4          11.5140   -25.5100    -9.5520 o          1 I8T      -0.580500
     25 C4A         10.4050   -23.5790    -8.7070 ca         1 I8T       0.143500
     26 N5          10.5690   -22.8800    -9.8200 nb         1 I8T      -0.574000
     27 H1          10.2220   -21.0820   -10.7510 h4         1 I8T       0.049100
     28 H2           8.2050   -19.9610   -10.6290 hn         1 I8T       0.341500
     29 H4           9.4190   -25.2890    -4.5000 hn         1 I8T       0.453300
     30 H5          10.2410   -26.6360    -5.1940 hn         1 I8T       0.453300
     31 H6          11.0430   -26.5050    -7.3420 hn         1 I8T       0.316500
     32 H7           8.0640   -15.7460   -12.8340 ha         1 I8T       0.135500
     33 H8           7.2550   -13.4410   -13.0960 ha         1 I8T       0.122000
     34 H9           6.8920   -11.2540   -10.3600 ho         1 I8T       0.411000
     35 H10          7.6310   -12.8470    -8.8670 ha         1 I8T       0.122000
     36 H11          8.4470   -15.1440    -8.6230 ha         1 I8T       0.135500
     37 H12          9.2100   -17.4040   -11.4890 hc         1 I8T       0.036700
     38 H13          9.6310   -17.0500    -9.8240 hc         1 I8T       0.036700
     39 H14          7.3110   -17.6590    -9.1140 h1         1 I8T       0.068700
     40 O            6.8400   -18.9300   -12.0560 o          1 I8T      -0.820800
@<TRIPOS>BOND
     1     1     8 2   
     2     1     9 1   
     3     1    10 1   
     4     2    10 1   
     5     2    24 2   
     6     2    25 1   
     7     3     4 ar  
     8     3    26 ar  
     9     3    27 1   
    10     4    20 1   
    11     4    22 ar  
    12     5    19 1   
    13     5    20 1   
    14     5    28 1   
    15     6     7 1   
    16     6    19 1   
    17     6    40 1   
    18     8    23 1   
    19     9    29 1   
    20     9    30 1   
    21    10    31 1   
    22    11    12 ar  
    23    11    17 ar  
    24    11    32 1   
    25    12    13 ar  
    26    12    33 1   
    27    13    14 1   
    28    13    15 ar  
    29    14    34 1   
    30    15    16 ar  
    31    15    35 1   
    32    16    17 ar  
    33    16    36 1   
    34    17    18 1   
    35    18    19 1   
    36    18    37 1   
    37    18    38 1   
    38    19    39 1   
    39    20    21 2   
    40    22    23 ar  
    41    23    25 ar  
    42    25    26 ar  
@<TRIPOS>SUBSTRUCTURE
     1 I8T         1 TEMP              0 ****  ****    0 ROOT
