@<TRIPOS>MOLECULE
I8T
   40    42     1     0     0
SMALL
No Charge or Current Charge


@<TRIPOS>ATOM
      1 C2          10.5140   -24.7670    -6.1930 cc         1 I8T       0.741800
      2 C4          10.3880   -25.2710    -8.5140 c          1 I8T       0.493500
      3 C6           9.1300   -22.1240   -10.0050 ca         1 I8T       0.268900
      4 C7           8.9960   -21.3120    -8.8600 ca         1 I8T       0.051500
      5 N            8.1670   -19.4020   -10.2010 ns         1 I8T      -0.459900
      6 C            6.8950   -17.9990   -11.8280 c          1 I8T       0.715000
      7 OXT          5.7500   -17.5710   -11.8070 o          1 I8T      -0.715500
      8 N1          10.0890   -23.5340    -6.2080 nd         1 I8T      -0.765700
      9 N2          10.8330   -25.2430    -5.0130 nv         1 I8T      -1.066200
     10 N3          10.6690   -25.6040    -7.2310 ns         1 I8T      -0.462400
     11 CD1          8.5060   -14.8490   -11.7930 ca         1 I8T      -0.057500
     12 CE1          8.0700   -13.5130   -11.8600 ca         1 I8T      -0.178000
     13 CZ           7.5280   -12.8930   -10.7250 ca         1 I8T       0.113100
     14 OH           7.1080   -11.5990   -10.7980 oh         1 I8T      -0.550100
     15 CE2          7.4200   -13.6030    -9.5200 ca         1 I8T      -0.178000
     16 CD2          7.8550   -14.9390    -9.4500 ca         1 I8T      -0.057500
     17 CG           8.4010   -15.5690   -10.5860 ca         1 I8T      -0.069300
     18 CB           8.8720   -17.0150   -10.5060 c3         1 I8T      -0.030100
     19 CA           7.6960   -18.0240   -10.4910 c3         1 I8T      -0.038300
     20 CAL          8.4990   -19.8840    -8.9450 c          1 I8T       0.495600
     21 OAQ          8.3860   -19.1740    -7.9520 o          1 I8T      -0.601100
     22 N8           9.3140   -21.7900    -7.6320 nb         1 I8T      -0.077000
     23 C8A          9.7640   -23.0610    -7.5040 ca         1 I8T       0.318000
     24 O4          10.5390   -26.0750    -9.4250 o          1 I8T      -0.505000
     25 C4A          9.8890   -23.8620    -8.6810 ca         1 I8T       0.143500
     26 N5           9.5740   -23.3980    -9.9270 nb         1 I8T      -0.574000
     27 H1           8.8830   -21.7660   -11.0030 h4         1 I8T       0.049100
     28 H2           8.2680   -20.0300   -10.9920 hn         1 I8T       0.341500
     29 H4          10.8710   -24.5200    -4.3050 hn         1 I8T       0.508500
     30 H5          11.5970   -25.9060    -4.9810 hn         1 I8T       0.508500
     31 H6          10.9840   -26.5450    -7.0610 hn         1 I8T       0.316500
     32 H7           8.9230   -15.3230   -12.6790 ha         1 I8T       0.117500
     33 H8           8.1530   -12.9630   -12.7940 ha         1 I8T       0.104000
     34 H9           6.7620   -11.3370    -9.9180 ho         1 I8T       0.450000
     35 H10          7.0010   -13.1300    -8.6350 ha         1 I8T       0.104000
     36 H11          7.7700   -15.4860    -8.5130 ha         1 I8T       0.117500
     37 H12          9.5420   -17.2520   -11.3420 hc         1 I8T       0.036700
     38 H13          9.4690   -17.1450    -9.5960 hc         1 I8T       0.036700
     39 H14          6.9990   -17.7330    -9.6940 h1         1 I8T       0.068700
     40 O            7.3910   -18.5390   -12.8080 o          1 I8T      -0.715500
@<TRIPOS>BOND
     1     1     8 2   
     2     1     9 1   
     3     1    10 1   
     4     2    10 1   
     5     2    24 2   
     6     2    25 1   
     7     3     4 ar  
     8     3    26 ar  
     9     3    27 1   
    10     4    20 1   
    11     4    22 ar  
    12     5    19 1   
    13     5    20 1   
    14     5    28 1   
    15     6     7 1   
    16     6    19 1   
    17     6    40 1   
    18     8    23 1   
    19     9    29 1   
    20     9    30 1   
    21    10    31 1   
    22    11    12 ar  
    23    11    17 ar  
    24    11    32 1   
    25    12    13 ar  
    26    12    33 1   
    27    13    14 1   
    28    13    15 ar  
    29    14    34 1   
    30    15    16 ar  
    31    15    35 1   
    32    16    17 ar  
    33    16    36 1   
    34    17    18 1   
    35    18    19 1   
    36    18    37 1   
    37    18    38 1   
    38    19    39 1   
    39    20    21 2   
    40    22    23 ar  
    41    23    25 ar  
    42    25    26 ar  
@<TRIPOS>SUBSTRUCTURE
     1 I8T         1 TEMP              0 ****  ****    0 ROOT
