@<TRIPOS>MOLECULE
I8U
   28    30     1     0     0
SMALL
abcg2


@<TRIPOS>ATOM
      1 C1          31.5750     9.1400     2.9020 ca         1 I8U       0.238100
      2 C2          31.6630    10.3670     2.2490 ca         1 I8U      -0.206000
      3 C3          29.9240    10.0690     4.3790 ca         1 I8U       0.050000
      4 C4          30.0090    11.3000     3.7330 ca         1 I8U      -0.216600
      5 C7          30.2100    13.8750     2.4240 ca         1 I8U      -0.129600
      6 C8          30.3330    15.1100     1.7950 ca         1 I8U      -0.076000
      7 C9          29.5790    16.1890     2.2260 ca         1 I8U      -0.115000
      8 C10         28.6940    16.0390     3.2870 ca         1 I8U      -0.108000
      9 C11         28.5670    14.8130     3.9200 ca         1 I8U      -0.077000
     10 O5          29.5750     7.6740     5.9280 o          1 I8U      -0.685200
     11 O           30.1190     6.4510     3.8700 o          1 I8U      -0.685200
     12 O4          31.9230     7.1860     5.3880 o          1 I8U      -0.685200
     13 C           30.6920     8.9930     3.9830 ca         1 I8U      -0.235500
     14 C13         29.1760    12.4240     4.1980 c          1 I8U       0.596300
     15 O2          28.4010    12.3000     5.1250 o          1 I8U      -0.524100
     16 C12         29.3240    13.7250     3.4960 ca         1 I8U      -0.116600
     17 C6          31.0230    12.7340     1.9400 c          1 I8U       0.592300
     18 O3          31.7690    12.8490     0.9910 o          1 I8U      -0.535100
     19 C5          30.8910    11.4410     2.6600 ca         1 I8U      -0.082600
     20 O1          32.3090     8.0910     2.5340 oh         1 I8U      -0.486100
     21 H1          32.3470    10.4820     1.4160 ha         1 I8U       0.118000
     22 H2          29.2440     9.9540     5.2120 ha         1 I8U       0.164000
     23 H3          31.0200    15.2270     0.9680 ha         1 I8U       0.130000
     24 H4          29.6800    17.1470     1.7340 ha         1 I8U       0.108000
     25 H5          28.1030    16.8810     3.6220 ha         1 I8U       0.109000
     26 H6          27.8780    14.7000     4.7450 ha         1 I8U       0.135000
     27 H           32.8790     8.3110     1.7870 ho         1 I8U       0.456000
     28 S           30.5680     7.4270     4.8710 s6         1 I8U       1.267100
@<TRIPOS>BOND
     1     1     2 ar  
     2     1    13 ar  
     3     1    20 1   
     4     2    19 ar  
     5     2    21 1   
     6     3     4 ar  
     7     3    13 ar  
     8     3    22 1   
     9     4    14 1   
    10     4    19 ar  
    11     5     6 ar  
    12     5    16 ar  
    13     5    17 1   
    14     6     7 ar  
    15     6    23 1   
    16     7     8 ar  
    17     7    24 1   
    18     8     9 ar  
    19     8    25 1   
    20     9    16 ar  
    21     9    26 1   
    22    10    28 1   
    23    11    28 1   
    24    12    28 1   
    25    13    28 1   
    26    14    15 2   
    27    14    16 1   
    28    17    18 2   
    29    17    19 1   
    30    20    27 1   
@<TRIPOS>SUBSTRUCTURE
     1 I8U         1 TEMP              0 ****  ****    0 ROOT
