@<TRIPOS>MOLECULE
I8U
   28    30     1     0     0
SMALL
No Charge or Current Charge


@<TRIPOS>ATOM
      1 C1          31.5860     9.0750     2.9280 ca         1 I8U       0.238100
      2 C2          31.6910    10.3110     2.2700 ca         1 I8U      -0.206000
      3 C3          29.9330    10.0360     4.4220 ca         1 I8U       0.050000
      4 C4          30.0360    11.2830     3.7630 ca         1 I8U      -0.216600
      5 C7          30.2170    13.9090     2.4150 ca         1 I8U      -0.129600
      6 C8          30.3120    15.1600     1.7620 ca         1 I8U      -0.076000
      7 C9          29.5370    16.2500     2.1860 ca         1 I8U      -0.115000
      8 C10         28.6570    16.1050     3.2660 ca         1 I8U      -0.108000
      9 C11         28.5510    14.8700     3.9240 ca         1 I8U      -0.077000
     10 O5          29.5370     7.6080     5.9330 o          1 I8U      -0.685200
     11 O           30.0990     6.4140     3.8220 o          1 I8U      -0.685200
     12 O4          31.9120     7.0930     5.3900 o          1 I8U      -0.685200
     13 C           30.7030     8.9270     4.0130 ca         1 I8U      -0.235500
     14 C13         29.1940    12.4420     4.2340 c          1 I8U       0.596300
     15 O2          28.4230    12.3150     5.1800 o          1 I8U      -0.524100
     16 C12         29.3260    13.7610     3.5090 ca         1 I8U      -0.116600
     17 C6          31.0620    12.7490     1.9410 c          1 I8U       0.592300
     18 O3          31.8340    12.8750     0.9940 o          1 I8U      -0.535100
     19 C5          30.9250    11.4270     2.6720 ca         1 I8U      -0.082600
     20 O1          32.3570     8.0420     2.4840 oh         1 I8U      -0.486100
     21 H1          32.3790    10.4080     1.4330 ha         1 I8U       0.118000
     22 H2          29.2460     9.9370     5.2600 ha         1 I8U       0.164000
     23 H3          30.9900    15.2930     0.9210 ha         1 I8U       0.130000
     24 H4          29.6190    17.2070     1.6760 ha         1 I8U       0.108000
     25 H5          28.0550    16.9500     3.5960 ha         1 I8U       0.109000
     26 H6          27.8620    14.7780     4.7610 ha         1 I8U       0.135000
     27 H           32.8900     8.3620     1.7290 ho         1 I8U       0.456000
     28 S           30.5420     7.3120     4.9000 s6         1 I8U       1.267100
@<TRIPOS>BOND
     1     1     2 ar  
     2     1    13 ar  
     3     1    20 1   
     4     2    19 ar  
     5     2    21 1   
     6     3     4 ar  
     7     3    13 ar  
     8     3    22 1   
     9     4    14 1   
    10     4    19 ar  
    11     5     6 ar  
    12     5    16 ar  
    13     5    17 1   
    14     6     7 ar  
    15     6    23 1   
    16     7     8 ar  
    17     7    24 1   
    18     8     9 ar  
    19     8    25 1   
    20     9    16 ar  
    21     9    26 1   
    22    10    28 1   
    23    11    28 1   
    24    12    28 1   
    25    13    28 1   
    26    14    15 2   
    27    14    16 1   
    28    17    18 2   
    29    17    19 1   
    30    20    27 1   
@<TRIPOS>SUBSTRUCTURE
     1 I8U         1 TEMP              0 ****  ****    0 ROOT
