@<TRIPOS>MOLECULE
I8Y
   30    32     1     0     0
SMALL
No Charge or Current Charge


@<TRIPOS>ATOM
      1 C1          31.1880     9.2660     2.8590 ca         1 I8Y       0.398000
      2 C2          31.2660    10.5050     2.1570 ca         1 I8Y       0.112100
      3 C3          29.7480    10.3160     4.5050 ca         1 I8Y       0.054000
      4 C7          29.9060    14.1630     2.4500 ca         1 I8Y      -0.127600
      5 C9          29.2670    16.5220     2.2820 ca         1 I8Y      -0.119000
      6 C10         28.5100    16.4050     3.4550 ca         1 I8Y      -0.105000
      7 C12         29.1410    14.0450     3.6360 ca         1 I8Y      -0.109600
      8 C13         29.0570    12.7330     4.3780 c          1 I8Y       0.598300
      9 C6          30.6610    12.9800     1.8910 c          1 I8Y       0.611300
     10 C5          30.5840    11.6560     2.6310 ca         1 I8Y      -0.204600
     11 C4          29.8160    11.5490     3.8200 ca         1 I8Y      -0.215600
     12 O5          31.6650     7.1010     4.9840 o          1 I8Y      -0.688867
     13 O           29.7270     8.0220     6.2530 o          1 I8Y      -0.688867
     14 O4          29.3580     6.8490     4.0890 o          1 I8Y      -0.688867
     15 C           30.4340     9.1770     4.0410 ca         1 I8Y      -0.289500
     16 O2          28.3940    12.6290     5.4040 o          1 I8Y      -0.537100
     17 C11         28.4470    15.1760     4.1280 ca         1 I8Y      -0.081000
     18 C8          29.9610    15.4090     1.7820 ca         1 I8Y      -0.072000
     19 O3          31.3220    13.0890     0.8610 o          1 I8Y      -0.594100
     20 O1          32.0170    10.5910     1.0050 oh         1 I8Y      -0.572100
     21 N           31.8690     8.1800     2.3570 nv         1 I8Y      -0.757000
     22 H3          29.1460    10.2470     5.4100 ha         1 I8Y       0.158000
     23 H5          29.3180    17.4740     1.7590 ha         1 I8Y       0.108000
     24 H6          27.9720    17.2670     3.8440 ha         1 I8Y       0.108000
     25 H7          27.8540    15.1050     5.0380 ha         1 I8Y       0.136000
     26 H4          30.5430    15.5190     0.8690 ha         1 I8Y       0.130000
     27 H2          31.9340    11.5290     0.6840 ho         1 I8Y       0.506000
     28 H           32.5060     8.3400     1.5850 hn         1 I8Y       0.333500
     29 H1          32.0530     7.4030     2.9840 hn         1 I8Y       0.333500
     30 S           30.2790     7.5920     4.9600 s6         1 I8Y       1.264100
@<TRIPOS>BOND
     1     1     2 ar  
     2     1    15 ar  
     3     1    21 1   
     4     2    10 ar  
     5     2    20 1   
     6     3    11 ar  
     7     3    15 ar  
     8     3    22 1   
     9     4     7 ar  
    10     4     9 1   
    11     4    18 ar  
    12     5     6 ar  
    13     5    18 ar  
    14     5    23 1   
    15     6    17 ar  
    16     6    24 1   
    17     7     8 1   
    18     7    17 ar  
    19     8    11 1   
    20     8    16 2   
    21     9    10 1   
    22     9    19 2   
    23    10    11 ar  
    24    12    30 1   
    25    13    30 1   
    26    14    30 1   
    27    15    30 1   
    28    17    25 1   
    29    18    26 1   
    30    20    27 1   
    31    21    28 1   
    32    21    29 1   
@<TRIPOS>SUBSTRUCTURE
     1 I8Y         1 TEMP              0 ****  ****    0 ROOT
