@<TRIPOS>MOLECULE
I8Y
   30    32     1     0     0
SMALL
bcc


@<TRIPOS>ATOM
      1 C1          31.1840     9.3220     2.8550 ca         1 I8Y       0.259600
      2 C2          31.2290    10.5710     2.1690 ca         1 I8Y       0.112100
      3 C3          29.7460    10.3640     4.5100 ca         1 I8Y       0.036000
      4 C7          29.9070    14.1130     2.4690 ca         1 I8Y      -0.127600
      5 C9          29.2940    16.4330     2.2750 ca         1 I8Y      -0.137000
      6 C10         28.5420    16.3290     3.4390 ca         1 I8Y      -0.123000
      7 C12         29.1540    14.0090     3.6430 ca         1 I8Y      -0.109600
      8 C13         29.0690    12.7280     4.3950 c          1 I8Y       0.598300
      9 C6          30.6350    12.9460     1.9320 c          1 I8Y       0.611300
     10 C5          30.5490    11.6810     2.6590 ca         1 I8Y      -0.204600
     11 C4          29.7940    11.5760     3.8500 ca         1 I8Y      -0.215600
     12 O5          31.6310     7.1460     4.9770 o          1 I8Y      -0.688867
     13 O           29.6860     8.0170     6.2100 o          1 I8Y      -0.688867
     14 O4          29.3740     6.8740     4.0450 o          1 I8Y      -0.688867
     15 C           30.4230     9.2500     4.0280 ca         1 I8Y      -0.289500
     16 O2          28.4190    12.6580     5.4230 o          1 I8Y      -0.537100
     17 C11         28.4730    15.1250     4.1200 ca         1 I8Y      -0.099000
     18 C8          29.9740    15.3280     1.7910 ca         1 I8Y      -0.090000
     19 O3          31.2930    13.0480     0.8990 o          1 I8Y      -0.594100
     20 O1          31.9610    10.5910     1.0580 oh         1 I8Y      -0.533100
     21 N           31.8480     8.2720     2.3220 nv         1 I8Y      -0.828200
     22 H3          29.1720    10.2790     5.4220 ha         1 I8Y       0.176000
     23 H5          29.3490    17.3740     1.7460 ha         1 I8Y       0.126000
     24 H6          28.0090    17.1920     3.8170 ha         1 I8Y       0.126000
     25 H7          27.8890    15.0490     5.0270 ha         1 I8Y       0.154000
     26 H4          30.5590    15.4080     0.8840 ha         1 I8Y       0.148000
     27 H2          31.9200    11.5050     0.6920 ho         1 I8Y       0.467000
     28 H           32.5260     8.4570     1.6020 hn         1 I8Y       0.438300
     29 H1          32.0750     7.5080     2.9410 hn         1 I8Y       0.438300
     30 S           30.2560     7.6840     4.8980 s6         1 I8Y       1.264100
@<TRIPOS>BOND
     1     1     2 ar  
     2     1    15 ar  
     3     1    21 1   
     4     2    10 ar  
     5     2    20 1   
     6     3    11 ar  
     7     3    15 ar  
     8     3    22 1   
     9     4     7 ar  
    10     4     9 1   
    11     4    18 ar  
    12     5     6 ar  
    13     5    18 ar  
    14     5    23 1   
    15     6    17 ar  
    16     6    24 1   
    17     7     8 1   
    18     7    17 ar  
    19     8    11 1   
    20     8    16 2   
    21     9    10 1   
    22     9    19 2   
    23    10    11 ar  
    24    12    30 1   
    25    13    30 1   
    26    14    30 1   
    27    15    30 1   
    28    17    25 1   
    29    18    26 1   
    30    20    27 1   
    31    21    28 1   
    32    21    29 1   
@<TRIPOS>SUBSTRUCTURE
     1 I8Y         1 TEMP              0 ****  ****    0 ROOT
