@<TRIPOS>MOLECULE
I90
   54    58     1     0     0
SMALL
No Charge or Current Charge


@<TRIPOS>ATOM
      1 CAB        -20.8930     4.9760   -35.2900 cc         1 I90       0.257900
      2 CAC        -19.6510     4.4890   -34.8510 cc         1 I90      -0.168000
      3 CAD        -18.6970     5.2240   -35.4930 cd         1 I90      -0.149000
      4 CAG        -19.3370     3.4240   -33.8880 ca         1 I90      -0.030000
      5 CAH        -18.0110     3.0730   -33.5690 ca         1 I90      -0.077000
      6 CAI        -17.7820     2.0630   -32.6180 ca         1 I90      -0.074000
      7 CAJ        -18.8840     1.4100   -32.0140 ca         1 I90       0.259000
      8 CAL        -20.3730     2.7150   -33.2380 ca         1 I90       0.359900
      9 CAM        -16.4640     1.7190   -32.2660 ca         1 I90      -0.092000
     10 CAN        -16.2180     0.7310   -31.2950 ca         1 I90      -0.078300
     11 CAO        -17.3100     0.0640   -30.7060 ca         1 I90      -0.107000
     12 CAP        -18.6270     0.4040   -31.0660 ca         1 I90      -0.077000
     13 CAQ        -14.7780     0.4140   -30.8820 c3         1 I90      -0.037100
     14 CAR        -14.5360     0.3830   -29.3460 c3         1 I90       0.106000
     15 CAU        -15.3930     3.8820   -28.6270 cc         1 I90       0.379200
     16 CAV        -15.3690     3.9190   -27.1790 cc         1 I90      -0.221600
     17 CAW        -15.0400     2.7840   -26.4670 cd         1 I90      -0.267200
     18 CAX        -14.7330     1.5240   -27.1490 c          1 I90       0.533200
     19 CAY        -15.7900     5.0790   -29.4190 ca         1 I90      -0.103900
     20 CAZ        -16.4020     6.2100   -28.8220 ca         1 I90      -0.057000
     21 CBA        -16.8000     7.3120   -29.5960 ca         1 I90      -0.120000
     22 CBB        -16.6070     7.3180   -30.9830 ca         1 I90      -0.042000
     23 CBC        -16.0120     6.2070   -31.6140 ca         1 I90      -0.181200
     24 CBD        -15.6160     5.0960   -30.8300 ca         1 I90      -0.022000
     25 NAA        -20.8000     5.9620   -36.1590 nd         1 I90      -0.524800
     26 NAE        -19.4240     6.1210   -36.2840 na         1 I90       0.139800
     27 NAK        -20.1600     1.7330   -32.3290 nb         1 I90      -0.659000
     28 NAS        -14.8140     1.6240   -28.5630 n          1 I90      -0.108800
     29 NAT        -15.1120     2.7720   -29.3230 nd         1 I90      -0.410300
     30 NBF        -15.7980     6.2050   -33.0970 no         1 I90       0.694200
     31 OBG        -15.1480     5.2770   -33.5940 o          1 I90      -0.402500
     32 OBH        -16.2870     7.1280   -33.7600 o          1 I90      -0.402500
     33 H1         -21.8770     4.6360   -34.9940 h4         1 I90       0.039100
     34 H2         -17.6150     5.2050   -35.4680 h4         1 I90       0.159000
     35 H3         -19.4450     8.0700   -37.0890 h1         1 I90       0.059367
     36 H4         -17.8220     7.3480   -36.8920 h1         1 I90       0.059367
     37 H5         -18.8950     6.7860   -38.2100 h1         1 I90       0.059367
     38 H6         -17.1700     3.5710   -34.0390 ha         1 I90       0.124000
     39 H7         -21.4170     2.9420   -33.4490 h4         1 I90       0.020100
     40 H8         -15.6290     2.2340   -32.7350 ha         1 I90       0.121000
     41 H9         -17.1470    -0.7140   -29.9650 ha         1 I90       0.119000
     42 H10        -19.4600    -0.1130   -30.5970 ha         1 I90       0.132000
     43 H11        -14.4970    -0.5640   -31.2910 hc         1 I90       0.062200
     44 H12        -14.0810     1.1330   -31.3290 hc         1 I90       0.062200
     45 H13        -15.1340    -0.4300   -28.9180 h1         1 I90       0.071700
     46 H14        -13.4840     0.1190   -29.1770 h1         1 I90       0.071700
     47 H15        -15.5810     4.8360   -26.6450 ha         1 I90       0.198000
     48 H16        -14.9920     2.7540   -25.3830 ha         1 I90       0.217000
     49 H17        -16.6070     6.2560   -27.7580 ha         1 I90       0.125000
     50 H18        -17.2690     8.1680   -29.1140 ha         1 I90       0.131000
     51 H19        -16.9240     8.1880   -31.5580 ha         1 I90       0.152000
     52 H20        -15.1540     4.2460   -31.3260 ha         1 I90       0.165000
     53 CAF        -18.8620     7.1450   -37.1740 c3         1 I90       0.069900
     54 OBE        -14.4400     0.4970   -26.5500 o          1 I90      -0.534000
@<TRIPOS>BOND
     1     1     2 1   
     2     1    25 2   
     3     1    33 1   
     4     2     3 2   
     5     2     4 1   
     6     3    26 1   
     7     3    34 1   
     8     4     5 ar  
     9     4     8 ar  
    10     5     6 ar  
    11     5    38 1   
    12     6     7 ar  
    13     6     9 ar  
    14     7    12 ar  
    15     7    27 ar  
    16     8    27 ar  
    17     8    39 1   
    18     9    10 ar  
    19     9    40 1   
    20    10    11 ar  
    21    10    13 1   
    22    11    12 ar  
    23    11    41 1   
    24    12    42 1   
    25    13    14 1   
    26    13    43 1   
    27    13    44 1   
    28    14    28 1   
    29    14    45 1   
    30    14    46 1   
    31    15    16 1   
    32    15    19 1   
    33    15    29 2   
    34    16    17 2   
    35    16    47 1   
    36    17    18 1   
    37    17    48 1   
    38    18    28 1   
    39    18    54 2   
    40    19    20 ar  
    41    19    24 ar  
    42    20    21 ar  
    43    20    49 1   
    44    21    22 ar  
    45    21    50 1   
    46    22    23 ar  
    47    22    51 1   
    48    23    24 ar  
    49    23    30 1   
    50    24    52 1   
    51    25    26 1   
    52    26    53 1   
    53    28    29 1   
    54    30    31 1   
    55    30    32 1   
    56    35    53 1   
    57    36    53 1   
    58    37    53 1   
@<TRIPOS>SUBSTRUCTURE
     1 I90         1 TEMP              0 ****  ****    0 ROOT
