@<TRIPOS>MOLECULE
I90
   54    58     1     0     0
SMALL
bcc


@<TRIPOS>ATOM
      1 CAB        -21.0060     4.3840   -35.3890 cc         1 I90       0.323200
      2 CAC        -19.7880     4.2750   -34.6890 cc         1 I90      -0.233300
      3 CAD        -19.0840     5.3970   -35.0920 cd         1 I90      -0.116300
      4 CAG        -19.3570     3.2400   -33.7590 ca         1 I90      -0.095300
      5 CAH        -18.0340     3.0020   -33.4780 ca         1 I90      -0.095000
      6 CAI        -17.6790     2.0100   -32.5450 ca         1 I90      -0.139300
      7 CAJ        -18.7170     1.2740   -31.9300 ca         1 I90       0.389600
      8 CAL        -20.3130     2.4320   -33.0850 ca         1 I90       0.425200
      9 CAM        -16.3380     1.7440   -32.1930 ca         1 I90      -0.110000
     10 CAN        -16.0200     0.8020   -31.2510 ca         1 I90      -0.078300
     11 CAO        -17.0670     0.0610   -30.6500 ca         1 I90      -0.125000
     12 CAP        -18.3760     0.2860   -30.9800 ca         1 I90      -0.160300
     13 CAQ        -14.5870     0.5870   -30.8530 c3         1 I90      -0.037100
     14 CAR        -14.3540     0.6100   -29.3450 c3         1 I90       0.106000
     15 CAU        -15.5790     3.9120   -28.8110 cc         1 I90       0.379200
     16 CAV        -16.3270     3.8240   -27.5990 cc         1 I90      -0.171600
     17 CAW        -16.3970     2.6390   -26.9640 cd         1 I90      -0.217200
     18 CAX        -15.7250     1.4740   -27.4910 c          1 I90       0.675700
     19 CAY        -15.5150     5.1570   -29.5990 ca         1 I90      -0.103900
     20 CAZ        -15.6660     6.4070   -28.9990 ca         1 I90      -0.075000
     21 CBA        -15.6560     7.5670   -29.7600 ca         1 I90      -0.138000
     22 CBB        -15.5100     7.5070   -31.1350 ca         1 I90      -0.060000
     23 CBC        -15.3450     6.2590   -31.7190 ca         1 I90      -0.181200
     24 CBD        -15.3310     5.0930   -30.9770 ca         1 I90      -0.040000
     25 NAA        -21.0370     5.4640   -36.1450 nd         1 I90      -0.524800
     26 NAE        -19.8670     6.0650   -35.9490 na         1 I90       0.118400
     27 NAK        -20.0200     1.5000   -32.2220 nb         1 I90      -0.659000
     28 NAS        -15.0500     1.7100   -28.6800 n          1 I90      -0.175800
     29 NAT        -14.9750     2.8730   -29.2970 nd         1 I90      -0.410300
     30 NBF        -15.2030     6.1660   -33.1660 no         1 I90       0.314200
     31 OBG        -14.8500     5.1100   -33.6360 o          1 I90      -0.212500
     32 OBH        -15.4490     7.1500   -33.8210 o          1 I90      -0.212500
     33 H1         -21.8490     3.7090   -35.3760 h4         1 I90       0.039100
     34 H2         -18.1060     5.7610   -34.8180 h4         1 I90       0.177000
     35 H3         -20.3040     8.0570   -36.3880 h1         1 I90       0.059367
     36 H4         -18.5840     7.6470   -36.3170 h1         1 I90       0.059367
     37 H5         -19.5530     7.1420   -37.7100 h1         1 I90       0.059367
     38 H6         -17.2500     3.5700   -33.9670 ha         1 I90       0.142000
     39 H7         -21.3690     2.5930   -33.2770 h4         1 I90       0.020100
     40 H8         -15.5530     2.3130   -32.6790 ha         1 I90       0.139000
     41 H9         -16.8320    -0.6970   -29.9130 ha         1 I90       0.137000
     42 H10        -19.1710    -0.2820   -30.5140 ha         1 I90       0.150000
     43 H11        -14.2350    -0.3870   -31.2040 hc         1 I90       0.062200
     44 H12        -13.9630     1.3350   -31.3420 hc         1 I90       0.062200
     45 H13        -14.7020    -0.3100   -28.8850 h1         1 I90       0.071700
     46 H14        -13.2850     0.6880   -29.1370 h1         1 I90       0.071700
     47 H15        -16.8500     4.6870   -27.2100 ha         1 I90       0.148000
     48 H16        -16.9620     2.5180   -26.0500 ha         1 I90       0.167000
     49 H17        -15.7830     6.4900   -27.9260 ha         1 I90       0.143000
     50 H18        -15.7680     8.5270   -29.2760 ha         1 I90       0.149000
     51 H19        -15.5200     8.4110   -31.7260 ha         1 I90       0.170000
     52 H20        -15.2080     4.1340   -31.4560 ha         1 I90       0.183000
     53 CAF        -19.5630     7.2990   -36.6330 c3         1 I90       0.040600
     54 OBE        -15.7350     0.3710   -26.9640 o          1 I90      -0.609500
@<TRIPOS>BOND
     1     1     2 1   
     2     1    25 2   
     3     1    33 1   
     4     2     3 2   
     5     2     4 1   
     6     3    26 1   
     7     3    34 1   
     8     4     5 ar  
     9     4     8 ar  
    10     5     6 ar  
    11     5    38 1   
    12     6     7 ar  
    13     6     9 ar  
    14     7    12 ar  
    15     7    27 ar  
    16     8    27 ar  
    17     8    39 1   
    18     9    10 ar  
    19     9    40 1   
    20    10    11 ar  
    21    10    13 1   
    22    11    12 ar  
    23    11    41 1   
    24    12    42 1   
    25    13    14 1   
    26    13    43 1   
    27    13    44 1   
    28    14    28 1   
    29    14    45 1   
    30    14    46 1   
    31    15    16 1   
    32    15    19 1   
    33    15    29 2   
    34    16    17 2   
    35    16    47 1   
    36    17    18 1   
    37    17    48 1   
    38    18    28 1   
    39    18    54 2   
    40    19    20 ar  
    41    19    24 ar  
    42    20    21 ar  
    43    20    49 1   
    44    21    22 ar  
    45    21    50 1   
    46    22    23 ar  
    47    22    51 1   
    48    23    24 ar  
    49    23    30 1   
    50    24    52 1   
    51    25    26 1   
    52    26    53 1   
    53    28    29 1   
    54    30    31 1   
    55    30    32 1   
    56    35    53 1   
    57    36    53 1   
    58    37    53 1   
@<TRIPOS>SUBSTRUCTURE
     1 I90         1 TEMP              0 ****  ****    0 ROOT
