@<TRIPOS>MOLECULE
I91
   35    37     1     0     0
SMALL
No Charge or Current Charge


@<TRIPOS>ATOM
      1 C5          30.1370    15.4040     5.0860 ca         1 I91      -0.072000
      2 C6          30.4630    14.2310     4.3640 ca         1 I91      -0.118600
      3 C4          30.1590    16.6600     4.4600 ca         1 I91      -0.101000
      4 C3          30.5060    16.7620     3.1070 ca         1 I91      -0.109000
      5 C2          30.8320    15.6080     2.3780 ca         1 I91      -0.071000
      6 C1          30.8150    14.3350     2.9940 ca         1 I91      -0.133600
      7 C9          30.8010    11.6660     4.2650 ca         1 I91      -0.210600
      8 C14         31.4790     9.3340     2.8230 ca         1 I91       0.257100
      9 C13         33.5480     8.9740     6.9810 c          1 I91       0.713000
     10 C11         31.1330     9.2350     4.1810 ca         1 I91      -0.282500
     11 C10         30.7990    10.4030     4.8960 ca         1 I91       0.069000
     12 O5          30.5440     6.6230     4.1780 o          1 I91      -0.550500
     13 S           31.1090     7.6580     5.0480 sy         1 I91       1.150600
     14 O4          30.6390     7.8490     6.4210 o          1 I91      -0.550500
     15 N           32.7370     7.2830     5.1770 n7         1 I91      -0.846300
     16 C12         33.7200     8.3610     5.5460 c3         1 I91       0.030800
     17 O3          33.3290    10.1730     7.0840 o          1 I91      -0.719500
     18 O2          33.6550     8.2220     7.9420 o          1 I91      -0.719500
     19 O6          31.8260     8.2390     2.0900 oh         1 I91      -0.491100
     20 C15         31.4860    10.5880     2.1940 ca         1 I91      -0.205000
     21 C8          31.1490    11.7660     2.8980 ca         1 I91      -0.053600
     22 C           31.1690    13.1070     2.1890 c          1 I91       0.590300
     23 O           31.4630    13.1940     1.0000 o          1 I91      -0.521100
     24 C7          30.4300    12.8910     5.0620 c          1 I91       0.594300
     25 O1          30.1030    12.7990     6.2390 o          1 I91      -0.507100
     26 H3          29.8640    15.3460     6.1380 ha         1 I91       0.140000
     27 H2          29.9060    17.5540     5.0260 ha         1 I91       0.114000
     28 H1          30.5230    17.7350     2.6210 ha         1 I91       0.113000
     29 H           31.0990    15.7090     1.3270 ha         1 I91       0.132000
     30 H4          30.5390    10.3330     5.9520 ha         1 I91       0.174000
     31 H5          32.7000     6.6040     5.9380 hn         1 I91       0.499000
     32 H7          34.7360     7.9480     5.5120 h1         1 I91       0.041700
     33 H6          33.6940     9.1800     4.8170 h1         1 I91       0.041700
     34 H9          32.0410     8.5330     1.1820 ho         1 I91       0.474000
     35 H10         31.7580    10.6530     1.1430 ha         1 I91       0.129000
@<TRIPOS>BOND
     1     1     2 ar  
     2     1     3 ar  
     3     1    26 1   
     4     2     6 ar  
     5     2    24 1   
     6     3     4 ar  
     7     3    27 1   
     8     4     5 ar  
     9     4    28 1   
    10     5     6 ar  
    11     5    29 1   
    12     6    22 1   
    13     7    11 ar  
    14     7    21 ar  
    15     7    24 1   
    16     8    10 ar  
    17     8    19 1   
    18     8    20 ar  
    19     9    16 1   
    20     9    17 1   
    21     9    18 1   
    22    10    11 ar  
    23    10    13 1   
    24    11    30 1   
    25    12    13 2   
    26    13    14 2   
    27    13    15 1   
    28    15    16 1   
    29    15    31 1   
    30    16    32 1   
    31    16    33 1   
    32    19    34 1   
    33    20    21 ar  
    34    20    35 1   
    35    21    22 1   
    36    22    23 2   
    37    24    25 2   
@<TRIPOS>SUBSTRUCTURE
     1 I91         1 TEMP              0 ****  ****    0 ROOT
