@<TRIPOS>MOLECULE
I91
   35    37     1     0     0
SMALL
abcg2


@<TRIPOS>ATOM
      1 C5          30.0560    15.6090     4.8140 ca         1 I91      -0.072000
      2 C6          30.4250    14.4320     4.1700 ca         1 I91      -0.118600
      3 C4          29.9370    16.7870     4.0960 ca         1 I91      -0.101000
      4 C3          30.1890    16.8010     2.7300 ca         1 I91      -0.109000
      5 C2          30.5620    15.6350     2.0820 ca         1 I91      -0.071000
      6 C1          30.6820    14.4460     2.7940 ca         1 I91      -0.133600
      7 C9          30.8850    11.9470     4.2320 ca         1 I91      -0.210600
      8 C14         31.5660     9.5760     2.8990 ca         1 I91       0.257100
      9 C13         33.7870     7.3680     7.4340 c          1 I91       0.713000
     10 C11         31.2700     9.5710     4.2720 ca         1 I91      -0.282500
     11 C10         30.9410    10.7420     4.9230 ca         1 I91       0.069000
     12 O5          30.4680     7.0650     4.4520 o          1 I91      -0.550500
     13 S           31.2470     8.0470     5.1860 sy         1 I91       1.150600
     14 O4          30.8270     8.3960     6.5360 o          1 I91      -0.550500
     15 N           32.8220     7.5870     5.1080 n7         1 I91      -0.846300
     16 C12         33.7360     8.1460     6.0990 c3         1 I91       0.030800
     17 O3          34.3720     7.9550     8.3620 o          1 I91      -0.719500
     18 O2          33.2900     6.2280     7.4320 o          1 I91      -0.719500
     19 O6          31.8930     8.4330     2.3140 oh         1 I91      -0.491100
     20 C15         31.5030    10.7840     2.2080 ca         1 I91      -0.205000
     21 C8          31.1600    11.9530     2.8630 ca         1 I91      -0.053600
     22 C           31.0830    13.2150     2.0760 c          1 I91       0.590300
     23 O           31.3340    13.2230     0.8910 o          1 I91      -0.521100
     24 C7          30.5340    13.1810     4.9600 c          1 I91       0.594300
     25 O1          30.3350    13.1740     6.1570 o          1 I91      -0.507100
     26 H3          29.8580    15.6000     5.8770 ha         1 I91       0.140000
     27 H2          29.6460    17.6980     4.6030 ha         1 I91       0.114000
     28 H1          30.0950    17.7210     2.1700 ha         1 I91       0.113000
     29 H           30.7590    15.6480     1.0180 ha         1 I91       0.132000
     30 H4          30.7190    10.7240     5.9810 ha         1 I91       0.174000
     31 H5          32.8780     6.5720     5.0790 hn         1 I91       0.499000
     32 H7          34.7340     8.1390     5.6540 h1         1 I91       0.041700
     33 H6          33.4980     9.1970     6.2690 h1         1 I91       0.041700
     34 H9          32.0750     8.5590     1.3730 ho         1 I91       0.474000
     35 H10         31.7210    10.8020     1.1460 ha         1 I91       0.129000
@<TRIPOS>BOND
     1     1     2 ar  
     2     1     3 ar  
     3     1    26 1   
     4     2     6 ar  
     5     2    24 1   
     6     3     4 ar  
     7     3    27 1   
     8     4     5 ar  
     9     4    28 1   
    10     5     6 ar  
    11     5    29 1   
    12     6    22 1   
    13     7    11 ar  
    14     7    21 ar  
    15     7    24 1   
    16     8    10 ar  
    17     8    19 1   
    18     8    20 ar  
    19     9    16 1   
    20     9    17 1   
    21     9    18 1   
    22    10    11 ar  
    23    10    13 1   
    24    11    30 1   
    25    12    13 2   
    26    13    14 2   
    27    13    15 1   
    28    15    16 1   
    29    15    31 1   
    30    16    32 1   
    31    16    33 1   
    32    19    34 1   
    33    20    21 ar  
    34    20    35 1   
    35    21    22 1   
    36    22    23 2   
    37    24    25 2   
@<TRIPOS>SUBSTRUCTURE
     1 I91         1 TEMP              0 ****  ****    0 ROOT
