@<TRIPOS>MOLECULE
I92
   21    21     1     0     0
SMALL
abcg2


@<TRIPOS>ATOM
      1 O01         -3.9860    -0.0700    -1.9990 o          1 I92      -0.690000
      2 C02         -3.6730     0.4870    -0.9400 c          1 I92       0.654000
      3 O03         -4.3240     1.2800    -0.2410 o          1 I92      -0.690000
      4 C04         -2.2540     0.1450    -0.4020 c          1 I92       0.433100
      5 O05         -1.4870    -0.5490    -1.0220 o          1 I92      -0.546100
      6 C06         -1.8850     0.7090     0.9540 c3         1 I92      -0.293400
      7 C07         -0.4770     0.3270     1.3250 c          1 I92       0.595700
      8 O08         -0.2400    -0.4510     2.2190 o          1 I92      -0.528100
      9 C09          0.6280     0.9480     0.5340 ca         1 I92      -0.107600
     10 C10          0.5800     2.3170     0.2740 ca         1 I92      -0.079000
     11 C11          1.6110     2.9670    -0.3850 ca         1 I92      -0.114000
     12 C12          2.7070     2.2410    -0.8200 ca         1 I92      -0.109000
     13 C13          2.7710     0.8730    -0.5940 ca         1 I92      -0.106000
     14 C14          1.7440     0.2370     0.0880 ca         1 I92       0.035100
     15 BR15         1.8870    -1.6320     0.3070 br         1 I92      -0.084100
     16 H06         -2.0270     1.7920     0.9400 hc         1 I92       0.088200
     17 H06A        -2.5830     0.3240     1.7020 hc         1 I92       0.088200
     18 H10         -0.2710     2.8940     0.6120 ha         1 I92       0.123000
     19 H11          1.5530     4.0320    -0.5600 ha         1 I92       0.109000
     20 H12          3.5170     2.7300    -1.3440 ha         1 I92       0.103000
     21 H13          3.6230     0.3110    -0.9540 ha         1 I92       0.118000
@<TRIPOS>BOND
     1     1     2 1   
     2     2     3 1   
     3     2     4 1   
     4     4     5 2   
     5     4     6 1   
     6     6     7 1   
     7     6    16 1   
     8     6    17 1   
     9     7     8 2   
    10     7     9 1   
    11     9    10 ar  
    12     9    14 ar  
    13    10    11 ar  
    14    10    18 1   
    15    11    12 ar  
    16    11    19 1   
    17    12    13 ar  
    18    12    20 1   
    19    13    14 ar  
    20    13    21 1   
    21    14    15 1   
@<TRIPOS>SUBSTRUCTURE
     1 I92         1 TEMP              0 ****  ****    0 ROOT
