@<TRIPOS>MOLECULE
I92
   21    21     1     0     0
SMALL
No Charge or Current Charge


@<TRIPOS>ATOM
      1 O01         -3.4600    -0.7070    -1.8700 o          1 I92      -0.690000
      2 C02         -2.6970    -0.0510    -1.1640 c          1 I92       0.654000
      3 O03         -2.0860     0.9310    -1.5760 o          1 I92      -0.690000
      4 C04         -2.4820    -0.5100     0.3800 c          1 I92       0.433100
      5 O05         -2.8370    -1.6160     0.7930 o          1 I92      -0.546100
      6 C06         -1.7870     0.4680     1.3310 c3         1 I92      -0.293400
      7 C07         -0.2990     0.1680     1.2720 c          1 I92       0.595700
      8 O08          0.1710    -0.7720     1.9010 o          1 I92      -0.528100
      9 C09          0.5830     1.0790     0.4640 ca         1 I92      -0.107600
     10 C10          0.6560     2.4510     0.7890 ca         1 I92      -0.079000
     11 C11          1.4850     3.3140     0.0520 ca         1 I92      -0.114000
     12 C12          2.2440     2.8160    -1.0190 ca         1 I92      -0.109000
     13 C13          2.1710     1.4540    -1.3550 ca         1 I92      -0.106000
     14 C14          1.3460     0.5860    -0.6180 ca         1 I92       0.035100
     15 Br15         1.2480    -1.2550    -1.1530 br         1 I92      -0.084100
     16 H06         -1.9480     1.4860     0.9640 hc         1 I92       0.088200
     17 H06A        -2.1460     0.2990     2.3520 hc         1 I92       0.088200
     18 H10          0.0780     2.8480     1.6220 ha         1 I92       0.123000
     19 H11          1.5380     4.3690     0.3110 ha         1 I92       0.109000
     20 H12          2.8830     3.4850    -1.5910 ha         1 I92       0.103000
     21 H13          2.7530     1.0710    -2.1910 ha         1 I92       0.118000
@<TRIPOS>BOND
     1     1     2 1   
     2     2     3 1   
     3     2     4 1   
     4     4     5 2   
     5     4     6 1   
     6     6     7 1   
     7     6    16 1   
     8     6    17 1   
     9     7     8 2   
    10     7     9 1   
    11     9    10 ar  
    12     9    14 ar  
    13    10    11 ar  
    14    10    18 1   
    15    11    12 ar  
    16    11    19 1   
    17    12    13 ar  
    18    12    20 1   
    19    13    14 ar  
    20    13    21 1   
    21    14    15 1   
@<TRIPOS>SUBSTRUCTURE
     1 I92         1 TEMP              0 ****  ****    0 ROOT
