@<TRIPOS>MOLECULE
I93
   24    24     1     0     0
SMALL
abcg2


@<TRIPOS>ATOM
      1 C01          3.7770    -0.7020     1.1380 c3         1 I93      -0.039800
      2 C02          2.9800     0.2520     0.3030 ca         1 I93      -0.096300
      3 C03          3.5510     1.4210    -0.1950 ca         1 I93      -0.082000
      4 C04          2.8410     2.3110    -0.9850 ca         1 I93      -0.168000
      5 C05          1.5290     2.0180    -1.2860 ca         1 I93       0.201000
      6 F06          0.8250     2.8750    -2.0360 f          1 I93      -0.169000
      7 C07          0.8950     0.8800    -0.8110 ca         1 I93      -0.183600
      8 C08         -0.5400     0.6240    -1.1680 c          1 I93       0.600700
      9 O09         -0.8680     0.5310    -2.3250 o          1 I93      -0.501100
     10 C10         -1.5300     0.5700    -0.0400 c3         1 I93      -0.288400
     11 C11         -2.3450    -0.7100     0.0220 c          1 I93       0.440100
     12 O12         -2.2900    -1.5600    -0.8290 o          1 I93      -0.538100
     13 C13         -3.2880    -0.8480     1.2530 c          1 I93       0.654000
     14 O14         -3.7460    -1.9810     1.4440 o          1 I93      -0.691000
     15 O15         -3.4780     0.1990     1.8910 o          1 I93      -0.691000
     16 C16          1.6460     0.0160    -0.0220 ca         1 I93       0.165000
     17 CL17         0.8920    -1.4370     0.5440 cl         1 I93      -0.157000
     18 H01          3.3000    -0.8900     2.1000 hc         1 I93       0.044700
     19 H01A         3.8930    -1.6660     0.6410 hc         1 I93       0.044700
     20 H01B         4.7710    -0.3030     1.3280 hc         1 I93       0.044700
     21 H03          4.5840     1.6390     0.0430 ha         1 I93       0.107000
     22 H04          3.3000     3.2150    -1.3600 ha         1 I93       0.125000
     23 H10         -1.0630     0.7540     0.9280 hc         1 I93       0.088200
     24 H10A        -2.2360     1.3970    -0.1810 hc         1 I93       0.088200
@<TRIPOS>BOND
     1     1     2 1   
     2     1    18 1   
     3     1    19 1   
     4     1    20 1   
     5     2     3 ar  
     6     2    16 ar  
     7     3     4 ar  
     8     3    21 1   
     9     4     5 ar  
    10     4    22 1   
    11     5     6 1   
    12     5     7 ar  
    13     7     8 1   
    14     7    16 ar  
    15     8     9 2   
    16     8    10 1   
    17    10    11 1   
    18    10    23 1   
    19    10    24 1   
    20    11    12 2   
    21    11    13 1   
    22    13    14 1   
    23    13    15 1   
    24    16    17 1   
@<TRIPOS>SUBSTRUCTURE
     1 I93         1 TEMP              0 ****  ****    0 ROOT
