@<TRIPOS>MOLECULE
I93
   24    24     1     0     0
SMALL
No Charge or Current Charge


@<TRIPOS>ATOM
      1 C01          3.6400    -0.9660     1.1280 c3         1 I93      -0.039800
      2 C02          2.7790     0.0750     0.4170 ca         1 I93      -0.096300
      3 C03          3.1980     1.4190     0.3900 ca         1 I93      -0.082000
      4 C04          2.4160     2.3890    -0.2560 ca         1 I93      -0.168000
      5 C05          1.2130     2.0230    -0.8750 ca         1 I93       0.201000
      6 F06          0.4830     2.9690    -1.5060 f          1 I93      -0.169000
      7 C07          0.7800     0.6880    -0.8590 ca         1 I93      -0.183600
      8 C08         -0.4990     0.3150    -1.5300 c          1 I93       0.600700
      9 O09         -0.4980    -0.3690    -2.5450 o          1 I93      -0.501100
     10 C10         -1.8020     0.8220    -0.9370 c3         1 I93      -0.288400
     11 C11         -2.3930    -0.3170    -0.1010 c          1 I93       0.440100
     12 O12         -3.1130    -1.1600    -0.6410 o          1 I93      -0.538100
     13 C13         -2.0180    -0.3790     1.4790 c          1 I93       0.654000
     14 O14         -2.6450    -1.1510     2.2010 o          1 I93      -0.691000
     15 O15         -1.1190     0.3460     1.8990 o          1 I93      -0.691000
     16 C16          1.5650    -0.2890    -0.2120 ca         1 I93       0.165000
     17 Cl17         1.0140    -1.9690    -0.1620 cl         1 I93      -0.157000
     18 H01          3.0910    -1.4350     1.9530 hc         1 I93       0.044700
     19 H01A         3.9530    -1.7570     0.4370 hc         1 I93       0.044700
     20 H01B         4.5490    -0.5230     1.5510 hc         1 I93       0.044700
     21 H03          4.1300     1.7150     0.8680 ha         1 I93       0.107000
     22 H04          2.7420     3.4260    -0.2790 ha         1 I93       0.125000
     23 H10         -1.5730     1.6600    -0.2710 hc         1 I93       0.088200
     24 H10A        -2.4930     1.0710    -1.7500 hc         1 I93       0.088200
@<TRIPOS>BOND
     1     1     2 1   
     2     1    18 1   
     3     1    19 1   
     4     1    20 1   
     5     2     3 ar  
     6     2    16 ar  
     7     3     4 ar  
     8     3    21 1   
     9     4     5 ar  
    10     4    22 1   
    11     5     6 1   
    12     5     7 ar  
    13     7     8 1   
    14     7    16 ar  
    15     8     9 2   
    16     8    10 1   
    17    10    11 1   
    18    10    23 1   
    19    10    24 1   
    20    11    12 2   
    21    11    13 1   
    22    13    14 1   
    23    13    15 1   
    24    16    17 1   
@<TRIPOS>SUBSTRUCTURE
     1 I93         1 TEMP              0 ****  ****    0 ROOT
