@<TRIPOS>MOLECULE
I94
   62    66     1     0     0
SMALL
abcg2


@<TRIPOS>ATOM
      1 CAB        -17.5020     4.5160   -34.8960 cc         1 I94       0.240900
      2 CAC        -18.2160     4.6410   -33.6850 cc         1 I94      -0.164000
      3 CAD        -19.0110     5.7550   -33.8970 cd         1 I94      -0.141000
      4 CAG        -18.1370     3.8040   -32.4950 ca         1 I94      -0.037000
      5 CAH        -17.2540     2.7600   -32.3760 ca         1 I94      -0.067000
      6 CAI        -17.2160     1.9960   -31.1910 ca         1 I94      -0.071000
      7 CAJ        -18.1050     2.3530   -30.1490 ca         1 I94       0.257000
      8 CAL        -18.9980     4.0470   -31.3900 ca         1 I94       0.355900
      9 CAM        -16.3000     0.9420   -30.9900 ca         1 I94      -0.074000
     10 CAN        -16.2380     0.2760   -29.7910 ca         1 I94      -0.083300
     11 CAO        -17.1490     0.6270   -28.7680 ca         1 I94      -0.106000
     12 CAP        -18.0590     1.6340   -28.9370 ca         1 I94      -0.083000
     13 CAQ        -15.1180    -0.6750   -29.4780 c3         1 I94      -0.052100
     14 CAR        -13.8120     0.0950   -29.1900 c3         1 I94       0.108000
     15 CAU        -14.7540     3.4770   -28.7740 cc         1 I94       0.391200
     16 CAV        -15.0370     3.6060   -27.3820 cc         1 I94      -0.215600
     17 CAW        -14.8030     2.5540   -26.5720 cd         1 I94      -0.271200
     18 CAX        -14.3330     1.2980   -27.1080 c          1 I94       0.530200
     19 CAY        -14.9790     4.5580   -29.7500 ca         1 I94      -0.097900
     20 CAZ        -14.1610     4.6740   -30.8700 ca         1 I94      -0.058000
     21 CBA        -14.3870     5.6700   -31.8010 ca         1 I94      -0.103000
     22 CBB        -15.4280     6.5790   -31.6410 ca         1 I94      -0.088600
     23 CBC        -16.2670     6.4480   -30.5340 ca         1 I94      -0.157300
     24 CBD        -16.0410     5.4450   -29.6010 ca         1 I94      -0.053000
     25 CBF        -15.5210     7.7190   -32.6150 c          1 I94       0.603700
     26 CBI        -15.7480     8.3160   -34.9660 c3         1 I94       0.093300
     27 CBJ        -17.4360     7.3700   -30.3370 c3         1 I94       0.359300
     28 FBK        -18.4150     6.7890   -29.6340 f          1 I94      -0.109333
     29 FBL        -17.9770     7.7500   -31.5000 f          1 I94      -0.109333
     30 FBM        -17.0980     8.4840   -29.6760 f          1 I94      -0.109333
     31 NAA        -17.8340     5.4620   -35.7550 nd         1 I94      -0.533800
     32 NAE        -18.7480     6.2000   -35.1330 na         1 I94       0.140800
     33 NAK        -18.9900     3.3700   -30.2790 nb         1 I94      -0.654000
     34 NAS        -14.0750     1.3330   -28.4670 n          1 I94      -0.110800
     35 NAT        -14.2730     2.3750   -29.2550 nd         1 I94      -0.422300
     36 NBH        -15.6950     7.3560   -33.8890 ns         1 I94      -0.496900
     37 OBG        -15.3900     8.8770   -32.2480 o          1 I94      -0.580100
     38 H1         -16.7700     3.7720   -35.1690 h4         1 I94       0.038100
     39 H2         -19.7350     6.2490   -33.2700 h4         1 I94       0.163000
     40 H3         -18.5780     8.0570   -36.0710 h1         1 I94       0.060700
     41 H4         -19.8730     7.0140   -36.6920 h1         1 I94       0.060700
     42 H5         -20.0470     7.8080   -35.1190 h1         1 I94       0.060700
     43 H6         -16.5650     2.5140   -33.1760 ha         1 I94       0.117000
     44 H7         -19.7260     4.8490   -31.4520 h4         1 I94       0.018100
     45 H8         -15.6000     0.7020   -31.7830 ha         1 I94       0.114000
     46 H9         -17.1110     0.0940   -27.8250 ha         1 I94       0.122000
     47 H10        -18.7470     1.9050   -28.1450 ha         1 I94       0.133000
     48 H11        -15.3790    -1.2910   -28.6170 hc         1 I94       0.064200
     49 H12        -14.9240    -1.3540   -30.3110 hc         1 I94       0.064200
     50 H13        -13.1180    -0.5230   -28.6250 h1         1 I94       0.074200
     51 H14        -13.3310     0.3850   -30.1210 h1         1 I94       0.074200
     52 H15        -15.4120     4.5400   -26.9820 ha         1 I94       0.203000
     53 H16        -14.9920     2.6040   -25.5080 ha         1 I94       0.216000
     54 H17        -13.3350     3.9900   -31.0090 ha         1 I94       0.134000
     55 H18        -13.7280     5.7580   -32.6550 ha         1 I94       0.126000
     56 H19        -16.7140     5.3320   -28.7620 ha         1 I94       0.138000
     57 H20        -15.9220     7.7770   -35.8920 h1         1 I94       0.042367
     58 H21        -16.5580     9.0320   -34.8240 h1         1 I94       0.042367
     59 H22        -14.8120     8.8680   -35.0560 h1         1 I94       0.042367
     60 H23        -15.8520     6.3840   -34.1050 hn         1 I94       0.327500
     61 CAF        -19.3430     7.3350   -35.7970 c3         1 I94       0.070900
     62 OBE        -14.1720     0.2720   -26.4600 o          1 I94      -0.539000
@<TRIPOS>BOND
     1     1     2 1   
     2     1    31 2   
     3     1    38 1   
     4     2     3 2   
     5     2     4 1   
     6     3    32 1   
     7     3    39 1   
     8     4     5 ar  
     9     4     8 ar  
    10     5     6 ar  
    11     5    43 1   
    12     6     7 ar  
    13     6     9 ar  
    14     7    12 ar  
    15     7    33 ar  
    16     8    33 ar  
    17     8    44 1   
    18     9    10 ar  
    19     9    45 1   
    20    10    11 ar  
    21    10    13 1   
    22    11    12 ar  
    23    11    46 1   
    24    12    47 1   
    25    13    14 1   
    26    13    48 1   
    27    13    49 1   
    28    14    34 1   
    29    14    50 1   
    30    14    51 1   
    31    15    16 1   
    32    15    19 1   
    33    15    35 2   
    34    16    17 2   
    35    16    52 1   
    36    17    18 1   
    37    17    53 1   
    38    18    34 1   
    39    18    62 2   
    40    19    20 ar  
    41    19    24 ar  
    42    20    21 ar  
    43    20    54 1   
    44    21    22 ar  
    45    21    55 1   
    46    22    23 ar  
    47    22    25 1   
    48    23    24 ar  
    49    23    27 1   
    50    24    56 1   
    51    25    36 1   
    52    25    37 2   
    53    26    36 1   
    54    26    57 1   
    55    26    58 1   
    56    26    59 1   
    57    27    28 1   
    58    27    29 1   
    59    27    30 1   
    60    31    32 1   
    61    32    61 1   
    62    34    35 1   
    63    36    60 1   
    64    40    61 1   
    65    41    61 1   
    66    42    61 1   
@<TRIPOS>SUBSTRUCTURE
     1 I94         1 TEMP              0 ****  ****    0 ROOT
