@<TRIPOS>MOLECULE
I94
   62    66     1     0     0
SMALL
No Charge or Current Charge


@<TRIPOS>ATOM
      1 CAB        -16.9210     4.3000   -35.2820 cc         1 I94       0.240900
      2 CAC        -17.8920     4.3970   -34.2720 cc         1 I94      -0.164000
      3 CAD        -18.7840     5.3450   -34.6820 cd         1 I94      -0.141000
      4 CAG        -18.0360     3.6520   -33.0150 ca         1 I94      -0.037000
      5 CAH        -17.1220     2.6340   -32.6860 ca         1 I94      -0.067000
      6 CAI        -17.2820     1.9350   -31.4760 ca         1 I94      -0.071000
      7 CAJ        -18.3570     2.2700   -30.6170 ca         1 I94       0.257000
      8 CAL        -19.0820     3.9110   -32.0990 ca         1 I94       0.355900
      9 CAM        -16.3640     0.9300   -31.1160 ca         1 I94      -0.074000
     10 CAN        -16.4830     0.2680   -29.8790 ca         1 I94      -0.083300
     11 CAO        -17.5570     0.5890   -29.0290 ca         1 I94      -0.106000
     12 CAP        -18.4870     1.5750   -29.4020 ca         1 I94      -0.083000
     13 CAQ        -15.4020    -0.7070   -29.4150 c3         1 I94      -0.052100
     14 CAR        -14.0240    -0.0270   -29.1890 c3         1 I94       0.108000
     15 CAU        -14.5420     3.5180   -28.5930 cc         1 I94       0.391200
     16 CAV        -14.4590     3.6310   -27.1490 cc         1 I94      -0.215600
     17 CAW        -14.1740     2.5140   -26.3870 cd         1 I94      -0.271200
     18 CAX        -13.9870     1.1980   -27.0080 c          1 I94       0.530200
     19 CAY        -14.9300     4.6750   -29.4480 ca         1 I94      -0.097900
     20 CAZ        -14.8240     4.5890   -30.8550 ca         1 I94      -0.058000
     21 CBA        -15.2020     5.6540   -31.6810 ca         1 I94      -0.103000
     22 CBB        -15.7260     6.8540   -31.1490 ca         1 I94      -0.088600
     23 CBC        -15.8980     6.9460   -29.7320 ca         1 I94      -0.157300
     24 CBD        -15.4870     5.8610   -28.9140 ca         1 I94      -0.053000
     25 CBF        -16.0460     7.9910   -32.1150 c          1 I94       0.603700
     26 CBI        -16.6900     8.5440   -34.4850 c3         1 I94       0.093300
     27 CBJ        -16.5570     8.1710   -29.0540 c3         1 I94       0.359300
     28 FBK        -16.9440     7.9250   -27.7800 f          1 I94      -0.109333
     29 FBL        -17.6750     8.5760   -29.6980 f          1 I94      -0.109333
     30 FBM        -15.7140     9.2270   -28.9920 f          1 I94      -0.109333
     31 NAA        -17.1260     5.1150   -36.2960 nd         1 I94      -0.533800
     32 NAE        -18.2980     5.7650   -35.9250 na         1 I94       0.140800
     33 NAK        -19.2450     3.2410   -30.9330 nb         1 I94      -0.654000
     34 NAS        -14.1070     1.2400   -28.4200 n          1 I94      -0.110800
     35 NAT        -14.3400     2.3610   -29.2320 nd         1 I94      -0.422300
     36 NBH        -16.4200     7.6120   -33.3880 ns         1 I94      -0.496900
     37 OBG        -15.9110     9.1730   -31.8340 o          1 I94      -0.580100
     38 H1         -16.0590     3.6460   -35.3090 h4         1 I94       0.038100
     39 H2         -19.6920     5.7390   -34.2390 h4         1 I94       0.163000
     40 H3         -18.1380     7.2760   -37.3900 h1         1 I94       0.060700
     41 H4         -19.6180     6.2740   -37.4830 h1         1 I94       0.060700
     42 H5         -19.4500     7.5080   -36.1980 h1         1 I94       0.060700
     43 H6         -16.2980     2.3900   -33.3520 ha         1 I94       0.117000
     44 H7         -19.8230     4.6840   -32.2950 h4         1 I94       0.018100
     45 H8         -15.5290     0.6970   -31.7730 ha         1 I94       0.114000
     46 H9         -17.6610     0.0950   -28.0650 ha         1 I94       0.122000
     47 H10        -19.3050     1.8210   -28.7310 ha         1 I94       0.133000
     48 H11        -15.7040    -1.1860   -28.4760 hc         1 I94       0.064200
     49 H12        -15.2830    -1.5170   -30.1440 hc         1 I94       0.064200
     50 H13        -13.3470    -0.7290   -28.6850 h1         1 I94       0.074200
     51 H14        -13.5770     0.1920   -30.1680 h1         1 I94       0.074200
     52 H15        -14.5980     4.5870   -26.6620 ha         1 I94       0.203000
     53 H16        -14.0910     2.5380   -25.3050 ha         1 I94       0.216000
     54 H17        -14.4180     3.7000   -31.3330 ha         1 I94       0.134000
     55 H18        -15.0440     5.5410   -32.7510 ha         1 I94       0.126000
     56 H19        -15.6370     5.9420   -27.8440 ha         1 I94       0.138000
     57 H20        -16.5660     8.0260   -35.4440 h1         1 I94       0.042367
     58 H21        -17.7190     8.9190   -34.4030 h1         1 I94       0.042367
     59 H22        -15.9890     9.3880   -34.4460 h1         1 I94       0.042367
     60 H23        -16.5320     6.6200   -33.5580 hn         1 I94       0.327500
     61 CAF        -18.9140     6.7690   -36.8040 c3         1 I94       0.070900
     62 OBE        -13.7620     0.1810   -26.3640 o          1 I94      -0.539000
@<TRIPOS>BOND
     1     1     2 1   
     2     1    31 2   
     3     1    38 1   
     4     2     3 2   
     5     2     4 1   
     6     3    32 1   
     7     3    39 1   
     8     4     5 ar  
     9     4     8 ar  
    10     5     6 ar  
    11     5    43 1   
    12     6     7 ar  
    13     6     9 ar  
    14     7    12 ar  
    15     7    33 ar  
    16     8    33 ar  
    17     8    44 1   
    18     9    10 ar  
    19     9    45 1   
    20    10    11 ar  
    21    10    13 1   
    22    11    12 ar  
    23    11    46 1   
    24    12    47 1   
    25    13    14 1   
    26    13    48 1   
    27    13    49 1   
    28    14    34 1   
    29    14    50 1   
    30    14    51 1   
    31    15    16 1   
    32    15    19 1   
    33    15    35 2   
    34    16    17 2   
    35    16    52 1   
    36    17    18 1   
    37    17    53 1   
    38    18    34 1   
    39    18    62 2   
    40    19    20 ar  
    41    19    24 ar  
    42    20    21 ar  
    43    20    54 1   
    44    21    22 ar  
    45    21    55 1   
    46    22    23 ar  
    47    22    25 1   
    48    23    24 ar  
    49    23    27 1   
    50    24    56 1   
    51    25    36 1   
    52    25    37 2   
    53    26    36 1   
    54    26    57 1   
    55    26    58 1   
    56    26    59 1   
    57    27    28 1   
    58    27    29 1   
    59    27    30 1   
    60    31    32 1   
    61    32    61 1   
    62    34    35 1   
    63    36    60 1   
    64    40    61 1   
    65    41    61 1   
    66    42    61 1   
@<TRIPOS>SUBSTRUCTURE
     1 I94         1 TEMP              0 ****  ****    0 ROOT
