@<TRIPOS>MOLECULE
I96
   40    42     1     0     0
SMALL
No Charge or Current Charge


@<TRIPOS>ATOM
      1 C1           1.8730    -0.8610     2.7950 ca         1 I96       0.312000
      2 C2           2.8420    -1.5950     2.0570 ca         1 I96      -0.108300
      3 N3           1.8760    -0.8570     4.1940 nu         1 I96      -0.960900
      4 C4           0.9150    -0.0890     2.1080 ca         1 I96      -0.115000
      5 C5           2.8120    -1.5330     0.6440 ca         1 I96      -0.088000
      6 C6           3.9230    -2.4620     2.7330 c3         1 I96      -0.016400
      7 C7           0.8780    -0.9400     5.1050 cc         1 I96       0.703400
      8 C8           0.8950    -0.0430     0.7060 ca         1 I96      -0.091000
      9 C9           1.8460    -0.7660    -0.0250 ca         1 I96      -0.125000
     10 C10          5.3360    -1.8880     2.4860 c3         1 I96      -0.086600
     11 C11          3.8260    -3.9410     2.2930 c3         1 I96      -0.086600
     12 N12         -0.3840    -1.0420     4.8090 nd         1 I96      -0.754000
     13 N13          1.0540    -0.9770     6.4540 na         1 I96      -0.249700
     14 C14         -0.9690    -1.1290     6.0500 cd         1 I96       0.645300
     15 N15         -0.1500    -1.0970     7.0900 nc         1 I96      -0.503800
     16 S16         -2.7020    -1.2840     6.3080 ss         1 I96      -0.324300
     17 C17         -3.3690    -1.2750     4.5880 c3         1 I96       0.127900
     18 C18         -4.8670    -1.4010     4.6010 cc         1 I96      -0.215300
     19 C19         -5.7970    -0.4000     4.7330 cd         1 I96      -0.118000
     20 S20         -5.6520    -2.9710     4.4360 ss         1 I96       0.226000
     21 C21         -7.1390    -0.8650     4.7040 cd         1 I96      -0.134000
     22 C22         -7.2430    -2.2240     4.5490 cc         1 I96      -0.242000
     23 HN3          2.7780    -1.0620     4.6090 hn         1 I96       0.501000
     24 H4           0.1860     0.4900     2.6660 ha         1 I96       0.136000
     25 H5           3.5430    -2.0810     0.0550 ha         1 I96       0.114000
     26 H6           3.7860    -2.4740     3.8200 hc         1 I96       0.044700
     27 H8           0.1490     0.5580     0.1900 ha         1 I96       0.117000
     28 H9           1.8370    -0.7310    -1.1130 ha         1 I96       0.116000
     29 H101         5.5920    -1.9090     1.4200 hc         1 I96       0.036533
     30 H102         6.0910    -2.4700     3.0280 hc         1 I96       0.036533
     31 H103         5.3940    -0.8500     2.8320 hc         1 I96       0.036533
     32 H111         2.8180    -4.3310     2.4780 hc         1 I96       0.036533
     33 H112         4.5360    -4.5580     2.8570 hc         1 I96       0.036533
     34 H113         4.0490    -4.0590     1.2260 hc         1 I96       0.036533
     35 HN13         1.9390    -0.9170     6.9440 hn         1 I96       0.374000
     36 H171        -2.9270    -2.1080     4.0250 h1         1 I96       0.083700
     37 H172        -3.0790    -0.3380     4.0940 h1         1 I96       0.083700
     38 H19         -5.5330     0.6470     4.8510 ha         1 I96       0.135000
     39 H21         -7.9990    -0.2080     4.7950 ha         1 I96       0.134000
     40 H22         -8.1290    -2.8430     4.4940 h4         1 I96       0.150000
@<TRIPOS>BOND
     1     1     2 ar  
     2     1     3 1   
     3     1     4 ar  
     4     2     5 ar  
     5     2     6 1   
     6     3     7 1   
     7     3    23 1   
     8     4     8 ar  
     9     4    24 1   
    10     5     9 ar  
    11     5    25 1   
    12     6    10 1   
    13     6    11 1   
    14     6    26 1   
    15     7    12 2   
    16     7    13 1   
    17     8     9 ar  
    18     8    27 1   
    19     9    28 1   
    20    10    29 1   
    21    10    30 1   
    22    10    31 1   
    23    11    32 1   
    24    11    33 1   
    25    11    34 1   
    26    12    14 1   
    27    13    15 1   
    28    13    35 1   
    29    14    15 2   
    30    14    16 1   
    31    16    17 1   
    32    17    18 1   
    33    17    36 1   
    34    17    37 1   
    35    18    19 2   
    36    18    20 1   
    37    19    21 1   
    38    19    38 1   
    39    20    22 1   
    40    21    22 2   
    41    21    39 1   
    42    22    40 1   
@<TRIPOS>SUBSTRUCTURE
     1 I96         1 TEMP              0 ****  ****    0 ROOT
