@<TRIPOS>MOLECULE
I96
   40    42     1     0     0
SMALL
abcg2


@<TRIPOS>ATOM
      1 C1           1.7880    -1.2140     2.7290 ca         1 I96       0.312000
      2 C2           2.7950    -1.8690     2.0020 ca         1 I96      -0.108300
      3 N3           1.8860    -1.1480     4.1280 nu         1 I96      -0.960900
      4 C4           0.7230    -0.6050     2.0660 ca         1 I96      -0.115000
      5 C5           2.7030    -1.8600     0.6120 ca         1 I96      -0.088000
      6 C6           3.9700    -2.5250     2.6960 c3         1 I96      -0.016400
      7 C7           0.8520    -1.1930     5.0000 cc         1 I96       0.703400
      8 C8           0.6460    -0.6380     0.6840 ca         1 I96      -0.091000
      9 C9           1.6430    -1.2610    -0.0520 ca         1 I96      -0.125000
     10 C10          5.1200    -1.5250     2.8560 c3         1 I96      -0.086600
     11 C11          4.4600    -3.7910     1.9940 c3         1 I96      -0.086600
     12 N12         -0.4220    -1.3910     4.7230 nd         1 I96      -0.754000
     13 N13          1.0070    -1.0530     6.3240 na         1 I96      -0.249700
     14 C14         -1.0030    -1.3410     5.9420 cd         1 I96       0.645300
     15 N15         -0.1910    -1.1340     6.9440 nc         1 I96      -0.503800
     16 S16         -2.7130    -1.6030     6.1980 ss         1 I96      -0.324300
     17 C17         -3.3940    -0.7090     4.7500 c3         1 I96       0.127900
     18 C18         -4.8520    -0.9810     4.6610 cc         1 I96      -0.215300
     19 C19         -5.8790    -0.1550     5.0130 cd         1 I96      -0.118000
     20 S20         -5.4520    -2.4950     4.0940 ss         1 I96       0.226000
     21 C21         -7.1580    -0.7420     4.8150 cd         1 I96      -0.134000
     22 C22         -7.0790    -2.0080     4.3230 cc         1 I96      -0.242000
     23 HN3          2.8080    -1.1020     4.5320 hn         1 I96       0.501000
     24 H4          -0.0490    -0.1020     2.6310 ha         1 I96       0.136000
     25 H5           3.4740    -2.3460     0.0280 ha         1 I96       0.114000
     26 H6           3.6470    -2.8350     3.6940 hc         1 I96       0.044700
     27 H8          -0.1900    -0.1630     0.1860 ha         1 I96       0.117000
     28 H9           1.5980    -1.2820    -1.1330 ha         1 I96       0.116000
     29 H101         5.4910    -1.2100     1.8790 hc         1 I96       0.036533
     30 H102         5.9490    -1.9700     3.4070 hc         1 I96       0.036533
     31 H103         4.8120    -0.6260     3.3940 hc         1 I96       0.036533
     32 H111         3.6510    -4.5080     1.8510 hc         1 I96       0.036533
     33 H112         5.2290    -4.2710     2.6000 hc         1 I96       0.036533
     34 H113         4.9020    -3.5800     1.0200 hc         1 I96       0.036533
     35 HN13         1.8490    -0.8840     6.8530 hn         1 I96       0.374000
     36 H171        -2.8590    -1.0420     3.8620 h1         1 I96       0.083700
     37 H172        -3.2260     0.3590     4.8770 h1         1 I96       0.083700
     38 H19         -5.7220     0.8430     5.4000 ha         1 I96       0.135000
     39 H21         -8.0920    -0.2430     5.0290 ha         1 I96       0.134000
     40 H22         -7.8880    -2.6800     4.0790 h4         1 I96       0.150000
@<TRIPOS>BOND
     1     1     2 ar  
     2     1     3 1   
     3     1     4 ar  
     4     2     5 ar  
     5     2     6 1   
     6     3     7 1   
     7     3    23 1   
     8     4     8 ar  
     9     4    24 1   
    10     5     9 ar  
    11     5    25 1   
    12     6    10 1   
    13     6    11 1   
    14     6    26 1   
    15     7    12 2   
    16     7    13 1   
    17     8     9 ar  
    18     8    27 1   
    19     9    28 1   
    20    10    29 1   
    21    10    30 1   
    22    10    31 1   
    23    11    32 1   
    24    11    33 1   
    25    11    34 1   
    26    12    14 1   
    27    13    15 1   
    28    13    35 1   
    29    14    15 2   
    30    14    16 1   
    31    16    17 1   
    32    17    18 1   
    33    17    36 1   
    34    17    37 1   
    35    18    19 2   
    36    18    20 1   
    37    19    21 1   
    38    19    38 1   
    39    20    22 1   
    40    21    22 2   
    41    21    39 1   
    42    22    40 1   
@<TRIPOS>SUBSTRUCTURE
     1 I96         1 TEMP              0 ****  ****    0 ROOT
