@<TRIPOS>MOLECULE
I98
   37    38     1     0     0
SMALL
No Charge or Current Charge


@<TRIPOS>ATOM
      1 F            3.9920     0.1380     2.3450 f          1 I98      -0.167000
      2 C15          4.4420     0.2020     1.0720 ca         1 I98       0.227000
      3 C11          5.6820    -0.3710     0.7590 ca         1 I98      -0.235000
      4 C18          6.1610    -0.3190    -0.5520 ca         1 I98       0.316000
      5 N2           7.3680    -0.8780    -0.8560 nv         1 I98      -1.079000
      6 C17          5.4040     0.3030    -1.5520 ca         1 I98      -0.205000
      7 C13          4.1600     0.8800    -1.2440 ca         1 I98      -0.040000
      8 C22          3.6700     0.8330     0.0750 ca         1 I98      -0.189300
      9 C19          2.3220     1.4570     0.4040 c3         1 I98       0.159300
     10 N21          1.2450     0.4940     0.1990 ns         1 I98      -0.510900
     11 C20         -0.0840     0.7500     0.4450 c          1 I98       0.641700
     12 O7          -0.4380     1.8360     0.8810 o          1 I98      -0.560100
     13 C14         -1.0280    -0.4090     0.2050 ca         1 I98      -0.213600
     14 C10         -0.5340    -1.7380     0.2290 ca         1 I98      -0.049000
     15 C16         -1.3940    -2.8260     0.0230 ca         1 I98      -0.192000
     16 C8          -2.7550    -2.6090    -0.2100 ca         1 I98       0.179000
     17 Cl4         -3.8290    -3.9750    -0.4670 cl         1 I98      -0.238000
     18 C9          -3.2630    -1.3060    -0.2410 ca         1 I98      -0.225000
     19 C12         -2.4110    -0.1980    -0.0360 ca         1 I98       0.227100
     20 O1          -2.9040     1.0930    -0.1050 os         1 I98      -0.269100
     21 C3          -4.3000     1.3870    -0.3580 c3         1 I98      -0.003400
     22 C5          -4.6110     2.9110    -0.4070 c          1 I98       0.730000
     23 O6          -5.7760     3.2420    -0.5850 o          1 I98      -0.705500
     24 O23         -3.7020     3.7210    -0.2720 o          1 I98      -0.705500
     25 H1           6.2630    -0.8520     1.5400 ha         1 I98       0.127000
     26 H2           7.8420    -1.4610    -0.1690 hn         1 I98       0.449500
     27 H3           7.6490    -0.9760    -1.8300 hn         1 I98       0.449500
     28 H4           5.7760     0.3440    -2.5720 ha         1 I98       0.111000
     29 H5           3.5780     1.3600    -2.0290 ha         1 I98       0.114000
     30 H6           2.3040     1.8020     1.4460 h1         1 I98       0.068200
     31 H7           2.1480     2.3290    -0.2400 h1         1 I98       0.068200
     32 H8           1.4780    -0.4160    -0.1730 hn         1 I98       0.308500
     33 H9           0.5140    -1.9470     0.4310 ha         1 I98       0.108000
     34 H10         -1.0050    -3.8410     0.0510 ha         1 I98       0.116000
     35 H11         -4.3230    -1.1780    -0.4310 ha         1 I98       0.142000
     36 H12         -4.6080     0.9600    -1.3210 h1         1 I98       0.022200
     37 H13         -4.9260     0.9470     0.4290 h1         1 I98       0.022200
@<TRIPOS>BOND
     1     1     2 1   
     2     2     3 ar  
     3     2     8 ar  
     4     3     4 ar  
     5     3    25 1   
     6     4     5 1   
     7     4     6 ar  
     8     5    26 1   
     9     5    27 1   
    10     6     7 ar  
    11     6    28 1   
    12     7     8 ar  
    13     7    29 1   
    14     8     9 1   
    15     9    10 1   
    16     9    30 1   
    17     9    31 1   
    18    10    11 1   
    19    10    32 1   
    20    11    12 2   
    21    11    13 1   
    22    13    14 ar  
    23    13    19 ar  
    24    14    15 ar  
    25    14    33 1   
    26    15    16 ar  
    27    15    34 1   
    28    16    17 1   
    29    16    18 ar  
    30    18    19 ar  
    31    18    35 1   
    32    19    20 1   
    33    20    21 1   
    34    21    22 1   
    35    21    36 1   
    36    21    37 1   
    37    22    23 1   
    38    22    24 1   
@<TRIPOS>SUBSTRUCTURE
     1 I98         1 TEMP              0 ****  ****    0 ROOT
