@<TRIPOS>MOLECULE
I98
   37    38     1     0     0
SMALL
abcg2


@<TRIPOS>ATOM
      1 F            2.8990    -0.0600     1.6760 f          1 I98      -0.167000
      2 C15          3.7850     0.1190     0.6790 ca         1 I98       0.227000
      3 C11          4.9550    -0.6070     0.7230 ca         1 I98      -0.235000
      4 C18          5.9000    -0.4460    -0.2980 ca         1 I98       0.316000
      5 N2           7.0970    -1.1170    -0.2540 nv         1 I98      -1.079000
      6 C17          5.6100     0.4530    -1.3330 ca         1 I98      -0.205000
      7 C13          4.4180     1.1550    -1.3370 ca         1 I98      -0.040000
      8 C22          3.4660     1.0140    -0.3310 ca         1 I98      -0.189300
      9 C19          2.1640     1.7650    -0.3470 c3         1 I98       0.159300
     10 N21          1.0300     0.8710    -0.4600 ns         1 I98      -0.510900
     11 C20          0.0580     0.7550     0.4600 c          1 I98       0.641700
     12 O7          -0.0750     1.4980     1.4180 o          1 I98      -0.560100
     13 C14         -0.8500    -0.4140     0.2340 ca         1 I98      -0.213600
     14 C10         -0.3220    -1.6960     0.2350 ca         1 I98      -0.049000
     15 C16         -1.1320    -2.8180     0.1160 ca         1 I98      -0.192000
     16 C8          -2.4930    -2.6170    -0.0190 ca         1 I98       0.179000
     17 CL4         -3.5400    -3.9890    -0.1760 cl         1 I98      -0.238000
     18 C9          -3.0580    -1.3510    -0.0380 ca         1 I98      -0.225000
     19 C12         -2.2340    -0.2330     0.0910 ca         1 I98       0.227100
     20 O1          -2.6720     1.0250     0.0600 os         1 I98      -0.269100
     21 C3          -4.0590     1.2670    -0.1150 c3         1 I98      -0.003400
     22 C5          -4.3460     2.7760    -0.1980 c          1 I98       0.730000
     23 O6          -5.5620     3.0380    -0.2860 o          1 I98      -0.705500
     24 O23         -3.3900     3.5620    -0.1830 o          1 I98      -0.705500
     25 H1           5.1350    -1.2920     1.5430 ha         1 I98       0.127000
     26 H2           7.1200    -1.9550     0.3050 hn         1 I98       0.449500
     27 H3           7.5720    -1.2330    -1.1340 hn         1 I98       0.449500
     28 H4           6.3230     0.5960    -2.1350 ha         1 I98       0.111000
     29 H5           4.2160     1.8400    -2.1520 ha         1 I98       0.114000
     30 H6           2.0330     2.3610     0.5560 h1         1 I98       0.068200
     31 H7           2.1660     2.4630    -1.1870 h1         1 I98       0.068200
     32 H8           1.0320     0.2290    -1.2370 hn         1 I98       0.308500
     33 H9           0.7460    -1.8320     0.3510 ha         1 I98       0.108000
     34 H10         -0.7090    -3.8120     0.1300 ha         1 I98       0.116000
     35 H11         -4.1280    -1.2510    -0.1560 ha         1 I98       0.142000
     36 H12         -4.4160     0.7890    -1.0360 h1         1 I98       0.022200
     37 H13         -4.6290     0.8360     0.7160 h1         1 I98       0.022200
@<TRIPOS>BOND
     1     1     2 1   
     2     2     3 ar  
     3     2     8 ar  
     4     3     4 ar  
     5     3    25 1   
     6     4     5 1   
     7     4     6 ar  
     8     5    26 1   
     9     5    27 1   
    10     6     7 ar  
    11     6    28 1   
    12     7     8 ar  
    13     7    29 1   
    14     8     9 1   
    15     9    10 1   
    16     9    30 1   
    17     9    31 1   
    18    10    11 1   
    19    10    32 1   
    20    11    12 2   
    21    11    13 1   
    22    13    14 ar  
    23    13    19 ar  
    24    14    15 ar  
    25    14    33 1   
    26    15    16 ar  
    27    15    34 1   
    28    16    17 1   
    29    16    18 ar  
    30    18    19 ar  
    31    18    35 1   
    32    19    20 1   
    33    20    21 1   
    34    21    22 1   
    35    21    36 1   
    36    21    37 1   
    37    22    23 1   
    38    22    24 1   
@<TRIPOS>SUBSTRUCTURE
     1 I98         1 TEMP              0 ****  ****    0 ROOT
