@<TRIPOS>MOLECULE
I99
   45    48     1     0     0
SMALL
bcc


@<TRIPOS>ATOM
      1 O5          -5.9420   -59.1380    41.1320 o          1 I99      -0.626800
      2 S           -6.5300   -60.2350    41.9060 sy         1 I99       1.280200
      3 O4          -6.0550   -60.4600    43.2570 o          1 I99      -0.626800
      4 N           -6.3240   -61.6170    41.0460 n3         1 I99      -0.697500
      5 C17         -6.6080   -62.8780    41.7430 c6         1 I99       0.191800
      6 C16         -5.9500   -64.0220    40.9920 c6         1 I99      -0.074400
      7 C15         -6.4020   -64.0630    39.5410 c6         1 I99      -0.058400
      8 C13         -6.1610   -62.7200    38.8570 c6         1 I99      -0.195700
      9 C14         -6.6360   -62.7440    37.3850 c          1 I99       0.935600
     10 O3          -7.4260   -61.8520    37.0200 o          1 I99      -0.829300
     11 O2          -6.1760   -63.6680    36.6860 o          1 I99      -0.829300
     12 C12         -6.8090   -61.5950    39.6530 c6         1 I99       0.202800
     13 C11         -8.2780   -59.9220    41.9610 ca         1 I99      -0.403500
     14 C18         -8.9020   -59.0190    41.0800 ca         1 I99       0.288100
     15 O6          -8.2660   -58.2680    40.1950 oh         1 I99      -0.483100
     16 C19        -10.2930   -58.8960    41.1390 ca         1 I99      -0.154000
     17 C8         -11.0340   -59.6360    42.0370 ca         1 I99      -0.052600
     18 C          -12.5140   -59.4670    42.0530 c          1 I99       0.587300
     19 O          -13.0580   -58.6950    41.2950 o          1 I99      -0.506100
     20 C10         -9.0270   -60.6470    42.8740 ca         1 I99       0.049000
     21 C9         -10.4060   -60.5220    42.9210 ca         1 I99      -0.219600
     22 C7         -11.1730   -61.3200    43.8960 c          1 I99       0.601300
     23 O1         -10.6190   -62.0780    44.6660 o          1 I99      -0.527100
     24 C6         -12.6470   -61.1610    43.9010 ca         1 I99      -0.121600
     25 C1         -13.2860   -60.2770    43.0230 ca         1 I99      -0.129600
     26 C5         -13.4050   -61.9080    44.7970 ca         1 I99      -0.090000
     27 C4         -14.7830   -61.7790    44.8220 ca         1 I99      -0.121000
     28 C3         -15.4170   -60.9000    43.9520 ca         1 I99      -0.124000
     29 C2         -14.6710   -60.1510    43.0570 ca         1 I99      -0.088000
     30 H13         -7.6920   -63.0460    41.8000 h1         1 I99       0.042700
     31 H14         -6.2220   -62.8270    42.7580 h1         1 I99       0.042700
     32 H11         -6.1990   -64.9540    41.5030 hc         1 I99       0.036700
     33 H12         -4.8640   -63.9060    41.0440 hc         1 I99       0.036700
     34 H9          -7.4710   -64.3060    39.5030 hc         1 I99       0.048200
     35 H10         -5.8800   -64.8530    39.0030 hc         1 I99       0.048200
     36 H7          -5.0780   -62.5400    38.8520 hc         1 I99       0.047700
     37 H5          -7.9010   -61.7050    39.6380 h1         1 I99       0.061200
     38 H6          -6.5600   -60.6390    39.1990 h1         1 I99       0.061200
     39 H15         -7.2970   -58.3550    40.3040 ho         1 I99       0.491000
     40 H16        -10.7780   -58.2020    40.4650 ha         1 I99       0.170000
     41 H4          -8.5370   -61.3220    43.5650 ha         1 I99       0.163000
     42 H3         -12.9140   -62.5930    45.4750 ha         1 I99       0.154000
     43 H2         -15.3660   -62.3640    45.5210 ha         1 I99       0.132000
     44 H1         -16.4940   -60.7980    43.9730 ha         1 I99       0.132000
     45 H          -15.1670   -59.4680    42.3810 ha         1 I99       0.153000
@<TRIPOS>BOND
     1     1     2 2   
     2     2     3 2   
     3     2     4 1   
     4     2    13 1   
     5     4     5 1   
     6     4    12 1   
     7     5     6 1   
     8     5    30 1   
     9     5    31 1   
    10     6     7 1   
    11     6    32 1   
    12     6    33 1   
    13     7     8 1   
    14     7    34 1   
    15     7    35 1   
    16     8     9 1   
    17     8    12 1   
    18     8    36 1   
    19     9    10 1   
    20     9    11 1   
    21    12    37 1   
    22    12    38 1   
    23    13    14 ar  
    24    13    20 ar  
    25    14    15 1   
    26    14    16 ar  
    27    15    39 1   
    28    16    17 ar  
    29    16    40 1   
    30    17    18 1   
    31    17    21 ar  
    32    18    19 2   
    33    18    25 1   
    34    20    21 ar  
    35    20    41 1   
    36    21    22 1   
    37    22    23 2   
    38    22    24 1   
    39    24    25 ar  
    40    24    26 ar  
    41    25    29 ar  
    42    26    27 ar  
    43    26    42 1   
    44    27    28 ar  
    45    27    43 1   
    46    28    29 ar  
    47    28    44 1   
    48    29    45 1   
@<TRIPOS>SUBSTRUCTURE
     1 I99         1 TEMP              0 ****  ****    0 ROOT
