@<TRIPOS>MOLECULE
I99
   45    48     1     0     0
SMALL
No Charge or Current Charge


@<TRIPOS>ATOM
      1 O5          -5.6870   -59.6010    42.4170 o          1 I99      -0.556000
      2 S           -6.5270   -60.7980    42.5370 sy         1 I99       1.138600
      3 O4          -6.4030   -61.7430    43.6500 o          1 I99      -0.556000
      4 N           -6.2860   -61.6670    41.0980 n3         1 I99      -0.697500
      5 C17         -4.9170   -62.2270    40.9720 c6         1 I99       0.191800
      6 C16         -4.6570   -62.7940    39.5570 c6         1 I99      -0.074400
      7 C15         -5.7160   -63.8530    39.1850 c6         1 I99      -0.058400
      8 C13         -7.1380   -63.2570    39.3520 c6         1 I99      -0.195700
      9 C14         -8.2490   -64.2720    39.0280 c          1 I99       0.725000
     10 O3          -8.3330   -65.2800    39.7140 o          1 I99      -0.724000
     11 O2          -8.9990   -64.0230    38.0960 o          1 I99      -0.724000
     12 C12         -7.3320   -62.6750    40.7710 c6         1 I99       0.202800
     13 C11         -8.2200   -60.2420    42.3810 ca         1 I99      -0.403500
     14 C18         -8.5470   -59.1090    41.6220 ca         1 I99       0.288100
     15 O6          -7.5910   -58.3570    41.0120 oh         1 I99      -0.522100
     16 C19         -9.8860   -58.7200    41.4920 ca         1 I99      -0.136000
     17 C8         -10.9240   -59.4430    42.1200 ca         1 I99      -0.052600
     18 C          -12.3600   -58.9930    41.9580 c          1 I99       0.587300
     19 O          -12.6450   -58.0060    41.2870 o          1 I99      -0.506100
     20 C10         -9.2420   -60.9710    43.0220 ca         1 I99       0.067000
     21 C9         -10.5920   -60.5800    42.8950 ca         1 I99      -0.219600
     22 C7         -11.6640   -61.3830    43.5860 c          1 I99       0.601300
     23 O1         -11.3760   -62.3680    44.2580 o          1 I99      -0.527100
     24 C6         -13.1000   -60.9400    43.4270 ca         1 I99      -0.121600
     25 C1         -13.4330   -59.8000    42.6510 ca         1 I99      -0.129600
     26 C5         -14.1330   -61.6700    44.0610 ca         1 I99      -0.072000
     27 C4         -15.4740   -61.2780    43.9290 ca         1 I99      -0.103000
     28 C3         -15.8020   -60.1520    43.1620 ca         1 I99      -0.106000
     29 C2         -14.7890   -59.4170    42.5270 ca         1 I99      -0.070000
     30 H13         -4.7620   -63.0260    41.7120 h1         1 I99       0.042700
     31 H14         -4.1630   -61.4520    41.1730 h1         1 I99       0.042700
     32 H11         -3.6520   -63.2350    39.5100 hc         1 I99       0.036700
     33 H12         -4.6750   -61.9750    38.8250 hc         1 I99       0.036700
     34 H9          -5.5960   -64.7360    39.8280 hc         1 I99       0.048200
     35 H10         -5.5650   -64.1910    38.1500 hc         1 I99       0.048200
     36 H7          -7.2420   -62.4290    38.6370 hc         1 I99       0.047700
     37 H5          -7.3180   -63.4910    41.5090 h1         1 I99       0.061200
     38 H6          -8.3360   -62.2290    40.8040 h1         1 I99       0.061200
     39 H15         -6.7200   -58.6580    41.3680 ho         1 I99       0.530000
     40 H16        -10.1140   -57.8390    40.8970 ha         1 I99       0.152000
     41 H4          -8.9880   -61.8510    43.6130 ha         1 I99       0.145000
     42 H3         -13.8990   -62.5470    44.6610 ha         1 I99       0.136000
     43 H2         -16.2590   -61.8480    44.4210 ha         1 I99       0.114000
     44 H1         -16.8410   -59.8470    43.0580 ha         1 I99       0.114000
     45 H          -15.0640   -58.5460    41.9350 ha         1 I99       0.135000
@<TRIPOS>BOND
     1     1     2 2   
     2     2     3 2   
     3     2     4 1   
     4     2    13 1   
     5     4     5 1   
     6     4    12 1   
     7     5     6 1   
     8     5    30 1   
     9     5    31 1   
    10     6     7 1   
    11     6    32 1   
    12     6    33 1   
    13     7     8 1   
    14     7    34 1   
    15     7    35 1   
    16     8     9 1   
    17     8    12 1   
    18     8    36 1   
    19     9    10 1   
    20     9    11 1   
    21    12    37 1   
    22    12    38 1   
    23    13    14 ar  
    24    13    20 ar  
    25    14    15 1   
    26    14    16 ar  
    27    15    39 1   
    28    16    17 ar  
    29    16    40 1   
    30    17    18 1   
    31    17    21 ar  
    32    18    19 2   
    33    18    25 1   
    34    20    21 ar  
    35    20    41 1   
    36    21    22 1   
    37    22    23 2   
    38    22    24 1   
    39    24    25 ar  
    40    24    26 ar  
    41    25    29 ar  
    42    26    27 ar  
    43    26    42 1   
    44    27    28 ar  
    45    27    43 1   
    46    28    29 ar  
    47    28    44 1   
    48    29    45 1   
@<TRIPOS>SUBSTRUCTURE
     1 I99         1 TEMP              0 ****  ****    0 ROOT
