@<TRIPOS>MOLECULE
I9C
   39    41     1     0     0
SMALL
No Charge or Current Charge


@<TRIPOS>ATOM
      1 C10         23.4820   -66.2520    53.3450 ca         1 I9C       0.079000
      2 C13         22.2750   -63.4980    54.8710 c          1 I9C       0.556100
      3 C14         23.2960   -64.4700    56.8290 c3         1 I9C       0.150900
      4 C15         21.7190   -66.7170    51.7370 ca         1 I9C       0.272100
      5 C16         21.5590   -67.9890    52.2970 ca         1 I9C      -0.143000
      6 O5          22.5140   -64.2080    50.2030 o          1 I9C      -0.534000
      7 O4          24.1120   -63.5890    52.1240 o          1 I9C      -0.534000
      8 N           21.6300   -63.3720    52.3660 n7         1 I9C      -0.866300
      9 C12         21.2070   -63.7370    53.7660 c3         1 I9C       0.136800
     10 O3          22.9750   -62.4950    54.9380 o          1 I9C      -0.480000
     11 O2          22.3340   -64.5420    55.7600 os         1 I9C      -0.433100
     12 C11         22.6710   -65.8350    52.2700 ca         1 I9C      -0.420500
     13 O6          20.9360   -66.3730    50.6780 oh         1 I9C      -0.526100
     14 C8          22.3470   -68.4150    53.3900 ca         1 I9C      -0.039600
     15 C           22.1410   -69.7950    53.9750 c          1 I9C       0.585300
     16 O           21.3010   -70.5620    53.5160 o          1 I9C      -0.500100
     17 C9          23.3220   -67.5330    53.9130 ca         1 I9C      -0.197600
     18 C7          24.1880   -67.9390    55.0770 c          1 I9C       0.600300
     19 O1          25.0350   -67.1760    55.5270 o          1 I9C      -0.513100
     20 C6          23.9820   -69.3130    55.6710 ca         1 I9C      -0.126600
     21 C1          23.0060   -70.1990    55.1470 ca         1 I9C      -0.136600
     22 C5          24.7730   -69.7260    56.7690 ca         1 I9C      -0.068000
     23 C4          24.6000   -70.9970    57.3390 ca         1 I9C      -0.094000
     24 C3          23.6370   -71.8720    56.8200 ca         1 I9C      -0.100000
     25 C2          22.8440   -71.4770    55.7310 ca         1 I9C      -0.066000
     26 H4          24.2330   -65.5750    53.7530 ha         1 I9C       0.150000
     27 H8          23.2380   -65.3690    57.4560 h1         1 I9C       0.055033
     28 H10         24.3170   -64.3990    56.4340 h1         1 I9C       0.055033
     29 H9          23.1080   -63.5970    57.4680 h1         1 I9C       0.055033
     30 H12         20.8090   -68.6530    51.8720 ha         1 I9C       0.156000
     31 H5          21.9990   -62.4190    52.3560 hn         1 I9C       0.510000
     32 H7          20.3330   -63.1450    54.0670 h1         1 I9C       0.101200
     33 H6          20.8930   -64.7870    53.8290 h1         1 I9C       0.101200
     34 H11         21.2990   -65.5360    50.3030 ho         1 I9C       0.521000
     35 H3          25.5270   -69.0610    57.1870 ha         1 I9C       0.140000
     36 H2          25.2150   -71.3030    58.1830 ha         1 I9C       0.122000
     37 H1          23.5020   -72.8580    57.2610 ha         1 I9C       0.122000
     38 H           22.1010   -72.1710    55.3430 ha         1 I9C       0.137000
     39 S           22.8780   -64.1850    51.6200 sy         1 I9C       1.170600
@<TRIPOS>BOND
     1     1    12 ar  
     2     1    17 ar  
     3     1    26 1   
     4     2     9 1   
     5     2    10 2   
     6     2    11 1   
     7     3    11 1   
     8     3    27 1   
     9     3    28 1   
    10     3    29 1   
    11     4     5 ar  
    12     4    12 ar  
    13     4    13 1   
    14     5    14 ar  
    15     5    30 1   
    16     6    39 2   
    17     7    39 2   
    18     8     9 1   
    19     8    31 1   
    20     8    39 1   
    21     9    32 1   
    22     9    33 1   
    23    12    39 1   
    24    13    34 1   
    25    14    15 1   
    26    14    17 ar  
    27    15    16 2   
    28    15    21 1   
    29    17    18 1   
    30    18    19 2   
    31    18    20 1   
    32    20    21 ar  
    33    20    22 ar  
    34    21    25 ar  
    35    22    23 ar  
    36    22    35 1   
    37    23    24 ar  
    38    23    36 1   
    39    24    25 ar  
    40    24    37 1   
    41    25    38 1   
@<TRIPOS>SUBSTRUCTURE
     1 I9C         1 TEMP              0 ****  ****    0 ROOT
