@<TRIPOS>MOLECULE
I9C
   39    41     1     0     0
SMALL
abcg2


@<TRIPOS>ATOM
      1 C10         23.9410   -66.3740    53.1920 ca         1 I9C       0.079000
      2 C13         21.4970   -63.9690    54.6730 c          1 I9C       0.556100
      3 C14         20.0610   -64.7270    56.3740 c3         1 I9C       0.150900
      4 C15         21.7260   -66.7020    52.2540 ca         1 I9C       0.272100
      5 C16         21.6330   -67.8920    52.9840 ca         1 I9C      -0.143000
      6 O5          22.0270   -64.2680    50.6100 o          1 I9C      -0.534000
      7 O4          24.4790   -64.2060    51.1880 o          1 I9C      -0.534000
      8 N           22.8200   -63.2050    52.7220 n7         1 I9C      -0.866300
      9 C12         21.5490   -63.1350    53.4040 c3         1 I9C       0.136800
     10 O3          22.4540   -64.4880    55.1810 o          1 I9C      -0.480000
     11 O2          20.2690   -64.0110    55.1540 os         1 I9C      -0.433100
     12 C11         22.9010   -65.9390    52.3860 ca         1 I9C      -0.420500
     13 O6          20.6920   -66.3840    51.4910 oh         1 I9C      -0.526100
     14 C8          22.6660   -68.3120    53.7940 ca         1 I9C      -0.039600
     15 C           22.5090   -69.5860    54.5520 c          1 I9C       0.585300
     16 O           21.4910   -70.2360    54.4670 o          1 I9C      -0.500100
     17 C9          23.8430   -67.5580    53.8990 ca         1 I9C      -0.197600
     18 C7          24.9710   -67.9920    54.7460 c          1 I9C       0.600300
     19 O1          25.9870   -67.3340    54.8300 o          1 I9C      -0.513100
     20 C6          24.8140   -69.2640    55.4930 ca         1 I9C      -0.126600
     21 C1          23.6400   -70.0200    55.4040 ca         1 I9C      -0.136600
     22 C5          25.8590   -69.7050    56.2980 ca         1 I9C      -0.068000
     23 C4          25.7380   -70.8860    57.0120 ca         1 I9C      -0.094000
     24 C3          24.5710   -71.6350    56.9270 ca         1 I9C      -0.100000
     25 C2          23.5270   -71.2050    56.1250 ca         1 I9C      -0.066000
     26 H4          24.8430   -65.7810    53.2760 ha         1 I9C       0.150000
     27 H8          19.0030   -64.6340    56.5970 h1         1 I9C       0.055033
     28 H10         20.3180   -65.7800    56.2610 h1         1 I9C       0.055033
     29 H9          20.6430   -64.2980    57.1890 h1         1 I9C       0.055033
     30 H12         20.7290   -68.4810    52.8990 ha         1 I9C       0.156000
     31 H5          23.6340   -62.9970    53.2900 hn         1 I9C       0.510000
     32 H7          21.3630   -62.0920    53.6740 h1         1 I9C       0.101200
     33 H6          20.7380   -63.4090    52.7280 h1         1 I9C       0.101200
     34 H11         20.8810   -65.5770    50.9740 ho         1 I9C       0.521000
     35 H3          26.7680   -69.1230    56.3650 ha         1 I9C       0.140000
     36 H2          26.5550   -71.2230    57.6360 ha         1 I9C       0.122000
     37 H1          24.4770   -72.5570    57.4850 ha         1 I9C       0.122000
     38 H           22.6210   -71.7920    56.0610 ha         1 I9C       0.137000
     39 S           23.1010   -64.3640    51.5990 sy         1 I9C       1.170600
@<TRIPOS>BOND
     1     1    12 ar  
     2     1    17 ar  
     3     1    26 1   
     4     2     9 1   
     5     2    10 2   
     6     2    11 1   
     7     3    11 1   
     8     3    27 1   
     9     3    28 1   
    10     3    29 1   
    11     4     5 ar  
    12     4    12 ar  
    13     4    13 1   
    14     5    14 ar  
    15     5    30 1   
    16     6    39 2   
    17     7    39 2   
    18     8     9 1   
    19     8    31 1   
    20     8    39 1   
    21     9    32 1   
    22     9    33 1   
    23    12    39 1   
    24    13    34 1   
    25    14    15 1   
    26    14    17 ar  
    27    15    16 2   
    28    15    21 1   
    29    17    18 1   
    30    18    19 2   
    31    18    20 1   
    32    20    21 ar  
    33    20    22 ar  
    34    21    25 ar  
    35    22    23 ar  
    36    22    35 1   
    37    23    24 ar  
    38    23    36 1   
    39    24    25 ar  
    40    24    37 1   
    41    25    38 1   
@<TRIPOS>SUBSTRUCTURE
     1 I9C         1 TEMP              0 ****  ****    0 ROOT
