@<TRIPOS>MOLECULE
I9F
   66    69     1     0     0
SMALL
abcg2


@<TRIPOS>ATOM
      1 C10         21.5350   -67.1760    53.6450 ca         1 I9F       0.062000
      2 C11         21.7330   -66.0930    52.8030 ca         1 I9F      -0.416500
      3 C13         20.3390   -61.9110    54.5010 c6         1 I9F       0.097500
      4 C14         19.9530   -61.9150    56.9090 c          1 I9F       0.615100
      5 C17         21.1540   -62.2750    59.5630 c          1 I9F       0.569100
      6 C21         16.1730   -60.4770    62.0120 c3         1 I9F       0.150900
      7 O9          19.1780   -66.0720    52.1910 o          1 I9F      -0.534500
      8 S           20.3060   -65.1710    52.2920 sy         1 I9F       1.165600
      9 O8          20.7110   -64.3930    51.1210 o          1 I9F      -0.534500
     10 C9          22.6110   -67.9030    54.1280 ca         1 I9F      -0.202600
     11 C7          22.3670   -69.0570    55.0160 c          1 I9F       0.600300
     12 O1          21.2430   -69.3730    55.3450 o          1 I9F      -0.516100
     13 C6          23.5490   -69.8210    55.4860 ca         1 I9F      -0.128600
     14 C5          23.3560   -70.9270    56.3080 ca         1 I9F      -0.067000
     15 C4          24.4420   -71.6600    56.7570 ca         1 I9F      -0.094000
     16 C3          25.7310   -71.2930    56.3890 ca         1 I9F      -0.098000
     17 C2          25.9330   -70.1920    55.5740 ca         1 I9F      -0.065000
     18 C1          24.8470   -69.4510    55.1170 ca         1 I9F      -0.135600
     19 C24         23.0300   -65.7260    52.3970 ca         1 I9F       0.271100
     20 O10         23.3120   -64.7350    51.5660 oh         1 I9F      -0.527100
     21 C25         24.1080   -66.4580    52.9020 ca         1 I9F      -0.137000
     22 C8          23.9050   -67.5260    53.7500 ca         1 I9F      -0.040600
     23 C           25.0920   -68.2810    54.2430 c          1 I9F       0.585300
     24 O           26.2120   -67.9440    53.9310 o          1 I9F      -0.497100
     25 N           19.9770   -64.0880    53.4850 n3         1 I9F      -0.726500
     26 C23         19.2980   -64.5710    54.6880 c6         1 I9F       0.171800
     27 C22         18.6480   -63.3860    55.3850 c6         1 I9F       0.097500
     28 N1          19.6400   -62.3730    55.6830 n          1 I9F      -0.401800
     29 C12         20.9930   -63.0740    53.7750 c6         1 I9F       0.171800
     30 O7          20.8370   -61.0790    57.0840 o          1 I9F      -0.629100
     31 C15         19.1600   -62.4400    58.0880 c3         1 I9F      -0.194400
     32 C16         19.6840   -61.8590    59.4060 c3         1 I9F       0.167000
     33 O2          19.4980   -60.4770    59.4920 oh         1 I9F      -0.637000
     34 O3          21.8900   -61.3460    60.1380 os         1 I9F      -0.411100
     35 C18         23.2660   -61.6530    60.3710 c3         1 I9F       0.148900
     36 C19         18.9460   -62.4660    60.6180 c3         1 I9F      -0.135400
     37 C20         17.5520   -61.8990    60.7430 c          1 I9F       0.610100
     38 O6          16.6420   -62.1490    59.9930 o          1 I9F      -0.500000
     39 O5          17.4390   -61.0960    61.7890 os         1 I9F      -0.426100
     40 H4          20.5320   -67.4690    53.9280 ha         1 I9F       0.150000
     41 H7          21.1020   -61.1880    54.7760 h1         1 I9F       0.072200
     42 H8          19.6270   -61.4180    53.8330 h1         1 I9F       0.072200
     43 H18         16.2960   -59.8560    62.8950 h1         1 I9F       0.049367
     44 H19         15.8830   -59.8510    61.1680 h1         1 I9F       0.049367
     45 H17         15.3940   -61.2160    62.1950 h1         1 I9F       0.049367
     46 H3          22.3540   -71.2150    56.5940 ha         1 I9F       0.140000
     47 H2          24.2850   -72.5190    57.3950 ha         1 I9F       0.123000
     48 H1          26.5790   -71.8660    56.7390 ha         1 I9F       0.123000
     49 H           26.9380   -69.9080    55.2900 ha         1 I9F       0.138000
     50 H24         22.4960   -64.3720    51.1690 ho         1 I9F       0.521000
     51 H25         25.1090   -66.1800    52.5990 ha         1 I9F       0.158000
     52 H22         20.0050   -65.0580    55.3700 h1         1 I9F       0.068950
     53 H23         18.5240   -65.2860    54.4200 h1         1 I9F       0.068950
     54 H20         18.1540   -63.7380    56.2850 h1         1 I9F       0.072200
     55 H21         17.8810   -62.9570    54.7340 h1         1 I9F       0.072200
     56 H5          21.7960   -63.4950    54.3920 h1         1 I9F       0.068950
     57 H6          21.4260   -62.6970    52.8510 h1         1 I9F       0.068950
     58 H9          18.1070   -62.1780    57.9680 hc         1 I9F       0.095200
     59 H10         19.2020   -63.5300    58.1240 hc         1 I9F       0.095200
     60 H11         19.9640   -60.0710    58.7500 ho         1 I9F       0.482000
     61 H12         23.6960   -60.7660    60.8270 h1         1 I9F       0.050700
     62 H13         23.3750   -62.4980    61.0500 h1         1 I9F       0.050700
     63 H14         23.7870   -61.8710    59.4390 h1         1 I9F       0.050700
     64 H15         18.8780   -63.5490    60.5040 hc         1 I9F       0.089200
     65 H16         19.5090   -62.2610    61.5290 hc         1 I9F       0.089200
     66 O4          21.5580   -63.3660    59.2490 o          1 I9F      -0.497000
@<TRIPOS>BOND
     1     1     2 ar  
     2     1    10 ar  
     3     1    40 1   
     4     2     8 1   
     5     2    19 ar  
     6     3    28 1   
     7     3    29 1   
     8     3    41 1   
     9     3    42 1   
    10     4    28 1   
    11     4    30 2   
    12     4    31 1   
    13     5    32 1   
    14     5    34 1   
    15     5    66 2   
    16     6    39 1   
    17     6    43 1   
    18     6    44 1   
    19     6    45 1   
    20     7     8 2   
    21     8     9 2   
    22     8    25 1   
    23    10    11 1   
    24    10    22 ar  
    25    11    12 2   
    26    11    13 1   
    27    13    14 ar  
    28    13    18 ar  
    29    14    15 ar  
    30    14    46 1   
    31    15    16 ar  
    32    15    47 1   
    33    16    17 ar  
    34    16    48 1   
    35    17    18 ar  
    36    17    49 1   
    37    18    23 1   
    38    19    20 1   
    39    19    21 ar  
    40    20    50 1   
    41    21    22 ar  
    42    21    51 1   
    43    22    23 1   
    44    23    24 2   
    45    25    26 1   
    46    25    29 1   
    47    26    27 1   
    48    26    52 1   
    49    26    53 1   
    50    27    28 1   
    51    27    54 1   
    52    27    55 1   
    53    29    56 1   
    54    29    57 1   
    55    31    32 1   
    56    31    58 1   
    57    31    59 1   
    58    32    33 1   
    59    32    36 1   
    60    33    60 1   
    61    34    35 1   
    62    35    61 1   
    63    35    62 1   
    64    35    63 1   
    65    36    37 1   
    66    36    64 1   
    67    36    65 1   
    68    37    38 2   
    69    37    39 1   
@<TRIPOS>SUBSTRUCTURE
     1 I9F         1 TEMP              0 ****  ****    0 ROOT
