@<TRIPOS>MOLECULE
I9F
   66    69     1     0     0
SMALL
No Charge or Current Charge


@<TRIPOS>ATOM
      1 C10         21.9990   -68.0670    53.7380 ca         1 I9F       0.062000
      2 C11         21.3770   -66.9390    53.1680 ca         1 I9F      -0.416500
      3 C13         21.1080   -64.4290    56.7880 c6         1 I9F       0.097500
      4 C14         20.0230   -62.7480    58.2920 c          1 I9F       0.615100
      5 C17         19.1220   -62.3430    61.3280 c          1 I9F       0.569100
      6 C21         17.6750   -56.8990    59.2200 c3         1 I9F       0.150900
      7 O9          19.0640   -67.7120    54.2770 o          1 I9F      -0.534500
      8 S           19.6860   -66.5610    53.6170 sy         1 I9F       1.165600
      9 O8          19.0850   -65.8870    52.4630 o          1 I9F      -0.534500
     10 C9          23.3410   -68.3810    53.4320 ca         1 I9F      -0.202600
     11 C7          23.9820   -69.5910    54.0620 c          1 I9F       0.600300
     12 O1          23.3540   -70.3040    54.8360 o          1 I9F      -0.516100
     13 C6          25.4210   -69.8960    53.7140 ca         1 I9F      -0.128600
     14 C5          26.0550   -71.0240    54.2860 ca         1 I9F      -0.067000
     15 C4          27.3900   -71.3290    53.9790 ca         1 I9F      -0.094000
     16 C3          28.1100   -70.5120    53.0960 ca         1 I9F      -0.098000
     17 C2          27.4940   -69.3890    52.5200 ca         1 I9F      -0.065000
     18 C1          26.1500   -69.0700    52.8210 ca         1 I9F      -0.135600
     19 C24         22.0940   -66.1270    52.2760 ca         1 I9F       0.271100
     20 O10         21.5280   -65.0430    51.6800 oh         1 I9F      -0.527100
     21 C25         23.4260   -66.4330    51.9730 ca         1 I9F      -0.137000
     22 C8          24.0680   -67.5550    52.5410 ca         1 I9F      -0.040600
     23 C           25.5090   -67.8560    52.1890 c          1 I9F       0.585300
     24 O           26.1370   -67.1400    51.4160 o          1 I9F      -0.497100
     25 N           19.8870   -65.3490    54.7890 n3         1 I9F      -0.726500
     26 C23         18.6120   -64.8410    55.3480 c6         1 I9F       0.171800
     27 C22         18.8150   -63.5790    56.2260 c6         1 I9F       0.097500
     28 N1          19.8890   -63.7050    57.2630 n          1 I9F      -0.401800
     29 C12         20.8340   -65.6610    55.8890 c6         1 I9F       0.171800
     30 O7          21.1170   -62.5230    58.7990 o          1 I9F      -0.629100
     31 C15         18.7640   -62.0220    58.7970 c3         1 I9F      -0.194400
     32 C16         18.9050   -61.2890    60.1680 c3         1 I9F       0.167000
     33 O2          20.0330   -60.3980    60.0610 oh         1 I9F      -0.637000
     34 O3          19.4040   -61.7450    62.5350 os         1 I9F      -0.411100
     35 C18         19.6300   -62.5900    63.6770 c3         1 I9F       0.148900
     36 C19         17.6460   -60.4320    60.5010 c3         1 I9F      -0.135400
     37 C20         17.3970   -59.2730    59.5320 c          1 I9F       0.610100
     38 O6          16.8280   -59.3990    58.4560 o          1 I9F      -0.500000
     39 O5          17.8480   -58.0760    60.0290 os         1 I9F      -0.426100
     40 H4          21.4430   -68.7010    54.4300 ha         1 I9F       0.150000
     41 H7          21.7020   -64.7580    57.6530 h1         1 I9F       0.072200
     42 H8          21.7300   -63.7210    56.2230 h1         1 I9F       0.072200
     43 H18         18.0800   -56.0190    59.7360 h1         1 I9F       0.049367
     44 H19         18.1980   -57.0030    58.2610 h1         1 I9F       0.049367
     45 H17         16.6110   -56.7150    59.0180 h1         1 I9F       0.049367
     46 H3          25.5140   -71.6710    54.9740 ha         1 I9F       0.140000
     47 H2          27.8670   -72.1990    54.4260 ha         1 I9F       0.123000
     48 H1          29.1450   -70.7470    52.8570 ha         1 I9F       0.123000
     49 H           28.0700   -68.7680    51.8370 ha         1 I9F       0.138000
     50 H24         20.5580   -65.0900    51.8520 ho         1 I9F       0.521000
     51 H25         23.9610   -65.7880    51.2810 ha         1 I9F       0.158000
     52 H22         18.1270   -65.6180    55.9570 h1         1 I9F       0.068950
     53 H23         17.9090   -64.5830    54.5420 h1         1 I9F       0.068950
     54 H20         17.8500   -63.3410    56.6910 h1         1 I9F       0.072200
     55 H21         19.0710   -62.7380    55.5670 h1         1 I9F       0.072200
     56 H5          20.4370   -66.4740    56.5150 h1         1 I9F       0.068950
     57 H6          21.8050   -65.9990    55.5010 h1         1 I9F       0.068950
     58 H9          18.4730   -61.3380    57.9940 hc         1 I9F       0.095200
     59 H10         17.9280   -62.7290    58.8050 hc         1 I9F       0.095200
     60 H11         20.7740   -60.9570    59.7140 ho         1 I9F       0.482000
     61 H12         19.8420   -61.9820    64.5660 h1         1 I9F       0.050700
     62 H13         18.7470   -63.2060    63.8900 h1         1 I9F       0.050700
     63 H14         20.4870   -63.2560    63.5090 h1         1 I9F       0.050700
     64 H15         16.7650   -61.0830    60.5020 hc         1 I9F       0.089200
     65 H16         17.7920   -60.0030    61.4990 hc         1 I9F       0.089200
     66 O4          19.0580   -63.5590    61.1780 o          1 I9F      -0.497000
@<TRIPOS>BOND
     1     1     2 ar  
     2     1    10 ar  
     3     1    40 1   
     4     2     8 1   
     5     2    19 ar  
     6     3    28 1   
     7     3    29 1   
     8     3    41 1   
     9     3    42 1   
    10     4    28 1   
    11     4    30 2   
    12     4    31 1   
    13     5    32 1   
    14     5    34 1   
    15     5    66 2   
    16     6    39 1   
    17     6    43 1   
    18     6    44 1   
    19     6    45 1   
    20     7     8 2   
    21     8     9 2   
    22     8    25 1   
    23    10    11 1   
    24    10    22 ar  
    25    11    12 2   
    26    11    13 1   
    27    13    14 ar  
    28    13    18 ar  
    29    14    15 ar  
    30    14    46 1   
    31    15    16 ar  
    32    15    47 1   
    33    16    17 ar  
    34    16    48 1   
    35    17    18 ar  
    36    17    49 1   
    37    18    23 1   
    38    19    20 1   
    39    19    21 ar  
    40    20    50 1   
    41    21    22 ar  
    42    21    51 1   
    43    22    23 1   
    44    23    24 2   
    45    25    26 1   
    46    25    29 1   
    47    26    27 1   
    48    26    52 1   
    49    26    53 1   
    50    27    28 1   
    51    27    54 1   
    52    27    55 1   
    53    29    56 1   
    54    29    57 1   
    55    31    32 1   
    56    31    58 1   
    57    31    59 1   
    58    32    33 1   
    59    32    36 1   
    60    33    60 1   
    61    34    35 1   
    62    35    61 1   
    63    35    62 1   
    64    35    63 1   
    65    36    37 1   
    66    36    64 1   
    67    36    65 1   
    68    37    38 2   
    69    37    39 1   
@<TRIPOS>SUBSTRUCTURE
     1 I9F         1 TEMP              0 ****  ****    0 ROOT
