@<TRIPOS>MOLECULE
I9G
   73    79     1     0     0
SMALL
abcg2


@<TRIPOS>ATOM
      1 C02         23.3020   -80.2980    -9.3780 c6         1 I9G       0.081300
      2 C03         22.3730   -81.4560    -9.7360 c6         1 I9G       0.123300
      3 C05         21.7760   -81.1840   -11.1180 c6         1 I9G       0.421500
      4 C07         23.6680   -79.9420   -11.8140 c6         1 I9G       0.031300
      5 C08         24.3550   -80.1160   -10.4630 c6         1 I9G       0.148300
      6 C10         24.6990   -79.8390   -12.9650 c          1 I9G       0.744000
      7 C14         20.0660   -81.7650   -12.7080 c6         1 I9G       0.159800
      8 C15         18.8800   -82.7000   -12.8930 c6         1 I9G       0.204800
      9 C17         20.1000   -84.4590   -11.8440 c6         1 I9G       0.204800
     10 C18         21.2930   -83.5370   -11.6390 c6         1 I9G       0.159800
     11 C19         19.5510   -84.6930   -14.2100 ca         1 I9G       0.647900
     12 C23         19.2870   -85.1900   -16.5220 cp         1 I9G       0.399500
     13 C24         18.9270   -84.3940   -15.4370 ca         1 I9G      -0.292000
     14 C26         17.7280   -83.7740   -17.5120 ca         1 I9G       0.430300
     15 C27         18.6120   -84.8220   -17.7410 cp         1 I9G      -0.225500
     16 C28         18.7300   -85.2930   -19.0660 ca         1 I9G       0.047700
     17 C29         17.9160   -84.7150   -20.0330 ca         1 I9G      -0.141300
     18 C30         18.0830   -85.0500   -21.4960 c6         1 I9G      -0.015100
     19 C31         18.8220   -86.3560   -21.7340 c6         1 I9G      -0.078400
     20 C32         20.0810   -86.4100   -20.8910 c6         1 I9G      -0.074400
     21 C33         19.7320   -86.3610   -19.4130 c6         1 I9G      -0.043100
     22 C34         17.0100   -83.6930   -19.6410 ca         1 I9G       0.578900
     23 C37         15.0430   -83.9130   -21.0340 c6         1 I9G       0.152800
     24 C38         14.4370   -83.2880   -22.2740 c6         1 I9G       0.150100
     25 C40         15.1300   -81.1750   -21.5930 c6         1 I9G       0.150100
     26 C41         15.7470   -81.7420   -20.3270 c6         1 I9G       0.152800
     27 N13         20.8350   -82.1620   -11.5440 n3         1 I9G      -0.740600
     28 N16         19.3480   -84.0700   -13.0320 nh         1 I9G      -0.747300
     29 N20         20.4070   -85.7320   -14.1980 nb         1 I9G      -0.465000
     30 N21         20.6690   -86.4460   -15.2490 nb         1 I9G       0.078000
     31 N22         20.1540   -86.2070   -16.4070 nb         1 I9G      -0.406000
     32 N35         16.9410   -83.2190   -18.4080 nb         1 I9G      -0.704000
     33 N36         16.1810   -83.1060   -20.5940 nh         1 I9G      -0.747300
     34 O01         23.9620   -80.5370    -8.1490 oh         1 I9G      -0.676000
     35 O04         21.3190   -81.5910    -8.8160 oh         1 I9G      -0.716000
     36 O06         22.8350   -81.0580   -12.0530 os         1 I9G      -0.453000
     37 O09         25.1570   -78.9850   -10.2270 oh         1 I9G      -0.688000
     38 O11         25.3560   -80.8700   -13.1960 o          1 I9G      -0.705000
     39 O12         24.7810   -78.7380   -13.5390 o          1 I9G      -0.705000
     40 O39         14.0450   -81.9550   -22.0430 os         1 I9G      -0.452000
     41 S25         17.7290   -83.2120   -15.8610 ss         1 I9G       0.031700
     42 H1          22.7020   -79.3770    -9.3220 h1         1 I9G       0.043700
     43 H2          22.9820   -82.3720    -9.7760 h1         1 I9G       0.054700
     44 H3          21.2280   -80.2270   -11.0660 h2         1 I9G       0.042700
     45 H4          23.0610   -79.0230   -11.7820 h1         1 I9G       0.028700
     46 H5          24.9640   -81.0320   -10.5110 h1         1 I9G       0.068700
     47 H6          20.6590   -81.7650   -13.6350 h1         1 I9G       0.057950
     48 H7          19.6920   -80.7500   -12.5590 h1         1 I9G       0.057950
     49 H8          18.2900   -82.3700   -13.7410 h1         1 I9G       0.064200
     50 H9          18.2290   -82.6540   -12.0170 h1         1 I9G       0.064200
     51 H10         19.4240   -84.3750   -10.9900 h1         1 I9G       0.064200
     52 H11         20.4240   -85.4910   -11.9200 h1         1 I9G       0.064200
     53 H12         21.7860   -83.8330   -10.7130 h1         1 I9G       0.057950
     54 H13         22.0110   -83.6920   -12.4570 h1         1 I9G       0.057950
     55 H14         18.6350   -84.2270   -21.9630 hc         1 I9G       0.051200
     56 H15         17.1270   -85.0870   -22.0130 hc         1 I9G       0.051200
     57 H16         18.1740   -87.2010   -21.4820 hc         1 I9G       0.038700
     58 H17         19.0580   -86.4480   -22.7960 hc         1 I9G       0.038700
     59 H18         20.6530   -87.3170   -21.0940 hc         1 I9G       0.046200
     60 H19         20.7300   -85.5670   -21.1470 hc         1 I9G       0.046200
     61 H20         19.3160   -87.3250   -19.0990 hc         1 I9G       0.076700
     62 H21         20.6310   -86.2270   -18.8140 hc         1 I9G       0.076700
     63 H24         13.5470   -83.8430   -22.5730 h1         1 I9G       0.049450
     64 H25         15.1640   -83.3430   -23.0980 h1         1 I9G       0.049450
     65 H26         15.9030   -81.1000   -22.3710 h1         1 I9G       0.049450
     66 H27         14.7510   -80.1710   -21.4000 h1         1 I9G       0.049450
     67 H28         16.6070   -81.1320   -20.0470 h1         1 I9G       0.054700
     68 H29         15.0230   -81.6900   -19.5030 h1         1 I9G       0.054700
     69 H31         23.5050   -80.0670    -7.4470 ho         1 I9G       0.431000
     70 H32         21.6940   -81.8160    -7.9590 ho         1 I9G       0.491000
     71 H33         25.5460   -79.0820    -9.3510 ho         1 I9G       0.486000
     72 H22         14.2880   -83.9750   -20.2370 h1         1 I9G       0.054700
     73 H23         15.3520   -84.9340   -21.2560 h1         1 I9G       0.054700
@<TRIPOS>BOND
     1     1     2 1   
     2     1     5 1   
     3     1    34 1   
     4     1    42 1   
     5     2     3 1   
     6     2    35 1   
     7     2    43 1   
     8     3    27 1   
     9     3    36 1   
    10     3    44 1   
    11     4     5 1   
    12     4     6 1   
    13     4    36 1   
    14     4    45 1   
    15     5    37 1   
    16     5    46 1   
    17     6    38 1   
    18     6    39 1   
    19     7     8 1   
    20     7    27 1   
    21     7    47 1   
    22     7    48 1   
    23     8    28 1   
    24     8    49 1   
    25     8    50 1   
    26     9    10 1   
    27     9    28 1   
    28     9    51 1   
    29     9    52 1   
    30    10    27 1   
    31    10    53 1   
    32    10    54 1   
    33    11    13 ar  
    34    11    28 1   
    35    11    29 ar  
    36    12    13 ar  
    37    12    15 1   
    38    12    31 ar  
    39    13    41 1   
    40    14    15 ar  
    41    14    32 ar  
    42    14    41 1   
    43    15    16 ar  
    44    16    17 ar  
    45    16    21 1   
    46    17    18 1   
    47    17    22 ar  
    48    18    19 1   
    49    18    55 1   
    50    18    56 1   
    51    19    20 1   
    52    19    57 1   
    53    19    58 1   
    54    20    21 1   
    55    20    59 1   
    56    20    60 1   
    57    21    61 1   
    58    21    62 1   
    59    22    32 ar  
    60    22    33 1   
    61    23    24 1   
    62    23    33 1   
    63    23    72 1   
    64    23    73 1   
    65    24    40 1   
    66    24    63 1   
    67    24    64 1   
    68    25    26 1   
    69    25    40 1   
    70    25    65 1   
    71    25    66 1   
    72    26    33 1   
    73    26    67 1   
    74    26    68 1   
    75    29    30 ar  
    76    30    31 ar  
    77    34    69 1   
    78    35    70 1   
    79    37    71 1   
@<TRIPOS>SUBSTRUCTURE
     1 I9G         1 TEMP              0 ****  ****    0 ROOT
