@<TRIPOS>MOLECULE
I9G
   73    79     1     0     0
SMALL
No Charge or Current Charge


@<TRIPOS>ATOM
      1 C02         23.4500   -80.4750    -8.6840 c6         1 I9G       0.081300
      2 C03         22.2950   -81.3600    -9.2260 c6         1 I9G       0.123300
      3 C05         22.0490   -80.9910   -10.7320 c6         1 I9G       0.421500
      4 C07         24.3800   -80.3650   -11.0630 c6         1 I9G       0.031300
      5 C08         24.7180   -80.6620    -9.5700 c6         1 I9G       0.148300
      6 C10         25.6630   -80.5280   -11.9530 c          1 I9G       0.744000
      7 C14         20.5590   -81.2140   -12.6780 c6         1 I9G       0.159800
      8 C15         19.3480   -81.9600   -13.3220 c6         1 I9G       0.204800
      9 C17         19.9840   -84.0070   -12.0550 c6         1 I9G       0.204800
     10 C18         21.1910   -83.2330   -11.4380 c6         1 I9G       0.159800
     11 C19         19.9220   -84.0570   -14.5870 ca         1 I9G       0.647900
     12 C23         19.5850   -84.5930   -16.9020 cp         1 I9G       0.399500
     13 C24         19.1710   -83.9360   -15.7520 ca         1 I9G      -0.292000
     14 C26         17.5550   -83.6680   -17.7910 ca         1 I9G       0.430300
     15 C27         18.6910   -84.4380   -18.0800 cp         1 I9G      -0.225500
     16 C28         18.8340   -84.9530   -19.3970 ca         1 I9G       0.047700
     17 C29         17.7770   -84.6800   -20.3100 ca         1 I9G      -0.141300
     18 C30         17.8190   -85.1950   -21.7630 c6         1 I9G      -0.015100
     19 C31         18.8400   -86.3270   -21.9930 c6         1 I9G      -0.078400
     20 C32         20.1920   -85.9500   -21.3710 c6         1 I9G      -0.074400
     21 C33         20.0550   -85.7790   -19.8430 c6         1 I9G      -0.043100
     22 C34         16.6840   -83.8830   -19.8780 ca         1 I9G       0.578900
     23 C37         14.4430   -84.4820   -20.7880 c6         1 I9G       0.152800
     24 C38         13.5510   -84.2030   -22.0350 c6         1 I9G       0.150100
     25 C40         14.3210   -81.9250   -22.1600 c6         1 I9G       0.150100
     26 C41         15.2410   -82.1200   -20.9190 c6         1 I9G       0.152800
     27 N13         20.9250   -81.7590   -11.3330 n3         1 I9G      -0.740600
     28 N16         19.5620   -83.4390   -13.3740 nh         1 I9G      -0.747300
     29 N20         21.0380   -84.8170   -14.6070 nb         1 I9G      -0.465000
     30 N21         21.4180   -85.4410   -15.7400 nb         1 I9G       0.078000
     31 N22         20.7030   -85.3400   -16.8760 nb         1 I9G      -0.406000
     32 N35         16.5650   -83.3750   -18.6430 nb         1 I9G      -0.704000
     33 N36         15.6150   -83.5570   -20.7250 nh         1 I9G      -0.747300
     34 O01         23.7330   -80.7970    -7.3100 oh         1 I9G      -0.676000
     35 O04         21.0970   -81.1910    -8.4320 oh         1 I9G      -0.716000
     36 O06         23.2570   -81.2080   -11.4860 os         1 I9G      -0.453000
     37 O09         25.7630   -79.8150    -9.0730 oh         1 I9G      -0.688000
     38 O11         25.7700   -81.5780   -12.5780 o          1 I9G      -0.705000
     39 O12         26.0980   -79.4930   -12.4480 o          1 I9G      -0.705000
     40 O39         13.1750   -82.8070   -22.0910 os         1 I9G      -0.452000
     41 S25         17.6180   -83.1190   -16.0820 ss         1 I9G       0.031700
     42 H1          23.1320   -79.4240    -8.7580 h1         1 I9G       0.043700
     43 H2          22.6240   -82.4080    -9.1790 h1         1 I9G       0.054700
     44 H3          21.7890   -79.9220   -10.7800 h2         1 I9G       0.042700
     45 H4          24.0630   -79.3150   -11.1480 h1         1 I9G       0.028700
     46 H5          25.0330   -81.7150    -9.5020 h1         1 I9G       0.068700
     47 H6          21.4130   -81.2950   -13.3670 h1         1 I9G       0.057950
     48 H7          20.3090   -80.1460   -12.6050 h1         1 I9G       0.057950
     49 H8          19.1850   -81.5480   -14.3270 h1         1 I9G       0.064200
     50 H9          18.4410   -81.7390   -12.7410 h1         1 I9G       0.064200
     51 H10         19.1410   -83.9550   -11.3520 h1         1 I9G       0.064200
     52 H11         20.2410   -85.0720   -12.1420 h1         1 I9G       0.064200
     53 H12         21.4000   -83.6700   -10.4510 h1         1 I9G       0.057950
     54 H13         22.0740   -83.4220   -12.0660 h1         1 I9G       0.057950
     55 H14         18.0570   -84.3530   -22.4270 hc         1 I9G       0.051200
     56 H15         16.8300   -85.5540   -22.0750 hc         1 I9G       0.051200
     57 H16         18.4700   -87.2600   -21.5460 hc         1 I9G       0.038700
     58 H17         18.9540   -86.5150   -23.0690 hc         1 I9G       0.038700
     59 H18         20.9420   -86.7210   -21.5960 hc         1 I9G       0.046200
     60 H19         20.5580   -85.0160   -21.8190 hc         1 I9G       0.046200
     61 H20         20.0020   -86.7700   -19.3710 hc         1 I9G       0.076700
     62 H21         20.9780   -85.3110   -19.4760 hc         1 I9G       0.076700
     63 H24         12.6430   -84.8200   -21.9900 h1         1 I9G       0.049450
     64 H25         14.0980   -84.4680   -22.9510 h1         1 I9G       0.049450
     65 H26         14.8850   -82.1370   -23.0800 h1         1 I9G       0.049450
     66 H27         13.9730   -80.8840   -22.2070 h1         1 I9G       0.049450
     67 H28         16.1450   -81.5080   -21.0540 h1         1 I9G       0.054700
     68 H29         14.7180   -81.7420   -20.0290 h1         1 I9G       0.054700
     69 H31         22.8520   -80.9770    -6.9080 ho         1 I9G       0.431000
     70 H32         20.3580   -81.4440    -9.0360 ho         1 I9G       0.491000
     71 H33         25.6440   -79.8320    -8.0930 ho         1 I9G       0.486000
     72 H22         13.8300   -84.3710   -19.8820 h1         1 I9G       0.054700
     73 H23         14.7810   -85.5280   -20.8250 h1         1 I9G       0.054700
@<TRIPOS>BOND
     1     1     2 1   
     2     1     5 1   
     3     1    34 1   
     4     1    42 1   
     5     2     3 1   
     6     2    35 1   
     7     2    43 1   
     8     3    27 1   
     9     3    36 1   
    10     3    44 1   
    11     4     5 1   
    12     4     6 1   
    13     4    36 1   
    14     4    45 1   
    15     5    37 1   
    16     5    46 1   
    17     6    38 1   
    18     6    39 1   
    19     7     8 1   
    20     7    27 1   
    21     7    47 1   
    22     7    48 1   
    23     8    28 1   
    24     8    49 1   
    25     8    50 1   
    26     9    10 1   
    27     9    28 1   
    28     9    51 1   
    29     9    52 1   
    30    10    27 1   
    31    10    53 1   
    32    10    54 1   
    33    11    13 ar  
    34    11    28 1   
    35    11    29 ar  
    36    12    13 ar  
    37    12    15 1   
    38    12    31 ar  
    39    13    41 1   
    40    14    15 ar  
    41    14    32 ar  
    42    14    41 1   
    43    15    16 ar  
    44    16    17 ar  
    45    16    21 1   
    46    17    18 1   
    47    17    22 ar  
    48    18    19 1   
    49    18    55 1   
    50    18    56 1   
    51    19    20 1   
    52    19    57 1   
    53    19    58 1   
    54    20    21 1   
    55    20    59 1   
    56    20    60 1   
    57    21    61 1   
    58    21    62 1   
    59    22    32 ar  
    60    22    33 1   
    61    23    24 1   
    62    23    33 1   
    63    23    72 1   
    64    23    73 1   
    65    24    40 1   
    66    24    63 1   
    67    24    64 1   
    68    25    26 1   
    69    25    40 1   
    70    25    65 1   
    71    25    66 1   
    72    26    33 1   
    73    26    67 1   
    74    26    68 1   
    75    29    30 ar  
    76    30    31 ar  
    77    34    69 1   
    78    35    70 1   
    79    37    71 1   
@<TRIPOS>SUBSTRUCTURE
     1 I9G         1 TEMP              0 ****  ****    0 ROOT
