@<TRIPOS>MOLECULE
I9H
   55    57     1     0     0
SMALL
No Charge or Current Charge


@<TRIPOS>ATOM
      1 CAG          1.4240    -2.4680    -0.4950 ca         1 I9H      -0.072000
      2 CAL          1.9650    -3.7660    -0.5180 ca         1 I9H      -0.109500
      3 CAR          3.2780    -3.9870    -0.0780 ca         1 I9H       0.134000
      4 Cl1          3.9540    -5.6110    -0.1090 cl         1 I9H      -0.189000
      5 CAM          4.0540    -2.9140     0.3840 ca         1 I9H      -0.109500
      6 CAH          3.5160    -1.6150     0.4100 ca         1 I9H      -0.072000
      7 CAC          2.1930    -1.3790    -0.0250 ca         1 I9H      -0.125900
      8 CAA          1.6300     0.0080    -0.0050 ce         1 I9H       0.381900
      9 NAD          0.4560     0.3060    -0.4500 n2         1 I9H      -0.403400
     10 CAB          2.2380     1.2100     0.7380 c5         1 I9H       0.027400
     11 NAF          3.2840     1.9510    -0.0720 n          1 I9H      -0.416800
     12 CAK          3.3520     1.8760    -1.5620 c3         1 I9H       0.100000
     13 CAQ          2.5300     2.9680    -2.2710 c3         1 I9H      -0.121100
     14 CAJ          4.2920     2.6580     0.6520 c          1 I9H       0.600100
     15 OAP          4.2680     2.6670     1.8800 o          1 I9H      -0.563100
     16 CAO          5.4060     3.4340    -0.1350 c3         1 I9H       0.087600
     17 OAU          6.2490     4.2750     0.6950 oh         1 I9H      -0.622000
     18 CAE          0.9970     2.1760     0.8490 c5         1 I9H       0.202800
     19 NAI          0.0540     1.5680    -0.1200 nh         1 I9H      -0.471700
     20 CAN         -1.2520     2.0570    -0.2050 c2         1 I9H       0.956100
     21 NAT         -1.6440     3.1410     0.3730 ne         1 I9H      -0.638700
     22 CAX         -2.8420     3.6800     0.2710 cg         1 I9H       0.430000
     23 NBA         -3.8490     4.2630     0.2670 n1         1 I9H      -0.523000
     24 NAS         -1.9830     1.2590    -1.0290 nu         1 I9H      -0.950200
     25 CAW         -3.2180     0.6780    -0.7910 ca         1 I9H       0.301000
     26 CAY         -3.2930    -0.5300    -0.0860 ca         1 I9H      -0.136000
     27 CAZ         -4.3890     1.2700    -1.2870 ca         1 I9H      -0.142000
     28 CBC         -5.6360     0.6670    -1.0560 ca         1 I9H      -0.059000
     29 CBD         -5.7120    -0.5370    -0.3350 ca         1 I9H      -0.157000
     30 CBB         -4.5330    -1.1450     0.1530 ca         1 I9H       0.150100
     31 OBE         -4.5220    -2.3310     0.8650 os         1 I9H      -0.394100
     32 CBF         -5.7040    -3.0920     1.1980 c3         1 I9H       0.395300
     33 FBH         -6.5650    -2.3640     1.9480 f          1 I9H      -0.129000
     34 FBG         -6.3690    -3.4810     0.0850 f          1 I9H      -0.129000
     35 HAG          0.4030    -2.3160    -0.8420 ha         1 I9H       0.131000
     36 HAL          1.3670    -4.5990    -0.8790 ha         1 I9H       0.135500
     37 HAM          5.0730    -3.0880     0.7210 ha         1 I9H       0.135500
     38 HAH          4.1380    -0.7950     0.7650 ha         1 I9H       0.131000
     39 HAB          2.6020     0.9060     1.7280 h1         1 I9H       0.120700
     40 HAE1         0.5820     2.1590     1.8660 h1         1 I9H       0.090200
     41 HAE2         1.2420     3.2180     0.6000 h1         1 I9H       0.090200
     42 HAK1         4.3920     1.9300    -1.9040 h1         1 I9H       0.051700
     43 HAK2         2.9890     0.8990    -1.9010 h1         1 I9H       0.051700
     44 HAQ1         1.4610     2.8570    -2.0590 hc         1 I9H       0.048367
     45 HAQ2         2.8420     3.9680    -1.9500 hc         1 I9H       0.048367
     46 HAQ3         2.6660     2.8970    -3.3560 hc         1 I9H       0.048367
     47 HAO1         6.0200     2.6880    -0.6560 h1         1 I9H       0.037200
     48 HAO2         4.9120     4.0480    -0.8980 h1         1 I9H       0.037200
     49 HAU          6.9090     4.7040     0.1050 ho         1 I9H       0.448000
     50 HAS         -1.2890     0.5650    -1.2960 hn         1 I9H       0.521000
     51 HAY         -2.3870    -0.9970     0.2900 ha         1 I9H       0.138000
     52 HAZ         -4.3310     2.1940    -1.8550 ha         1 I9H       0.129000
     53 HBC         -6.5430     1.1320    -1.4390 ha         1 I9H       0.123000
     54 HBD         -6.6900    -0.9790    -0.1730 ha         1 I9H       0.138000
     55 HBF         -5.4280    -3.9880     1.7640 h3         1 I9H       0.108700
@<TRIPOS>BOND
     1     1     2 ar  
     2     1     7 ar  
     3     1    35 1   
     4     2     3 ar  
     5     2    36 1   
     6     3     4 1   
     7     3     5 ar  
     8     5     6 ar  
     9     5    37 1   
    10     6     7 ar  
    11     6    38 1   
    12     7     8 1   
    13     8     9 2   
    14     8    10 1   
    15     9    19 1   
    16    10    11 1   
    17    10    18 1   
    18    10    39 1   
    19    11    12 1   
    20    11    14 1   
    21    12    13 1   
    22    12    42 1   
    23    12    43 1   
    24    13    44 1   
    25    13    45 1   
    26    13    46 1   
    27    14    15 2   
    28    14    16 1   
    29    16    17 1   
    30    16    47 1   
    31    16    48 1   
    32    17    49 1   
    33    18    19 1   
    34    18    40 1   
    35    18    41 1   
    36    19    20 1   
    37    20    21 2   
    38    20    24 1   
    39    21    22 1   
    40    22    23 3   
    41    24    25 1   
    42    24    50 1   
    43    25    26 ar  
    44    25    27 ar  
    45    26    30 ar  
    46    26    51 1   
    47    27    28 ar  
    48    27    52 1   
    49    28    29 ar  
    50    28    53 1   
    51    29    30 ar  
    52    29    54 1   
    53    30    31 1   
    54    31    32 1   
    55    32    33 1   
    56    32    34 1   
    57    32    55 1   
@<TRIPOS>SUBSTRUCTURE
     1 I9H         1 TEMP              0 ****  ****    0 ROOT
