@<TRIPOS>MOLECULE
I9H
   55    57     1     0     0
SMALL
abcg2


@<TRIPOS>ATOM
      1 CAG          2.4600    -2.4300    -0.1500 ca         1 I9H      -0.072000
      2 CAL          3.3120    -3.4860    -0.4090 ca         1 I9H      -0.109500
      3 CAR          4.6700    -3.3430    -0.1480 ca         1 I9H       0.134000
      4 CL1          5.7390    -4.6610    -0.4740 cl         1 I9H      -0.189000
      5 CAM          5.1780    -2.1620     0.3670 ca         1 I9H      -0.109500
      6 CAH          4.3140    -1.1090     0.6230 ca         1 I9H      -0.072000
      7 CAC          2.9480    -1.2270     0.3700 ca         1 I9H      -0.125900
      8 CAA          2.0500    -0.1130     0.6410 ce         1 I9H       0.381900
      9 NAD          0.7790    -0.2210     0.5550 n2         1 I9H      -0.403400
     10 CAB          2.4990     1.2990     0.9600 c5         1 I9H       0.027400
     11 NAF          3.1710     1.9060    -0.1750 n          1 I9H      -0.416800
     12 CAK          2.5650     1.8200    -1.5020 c3         1 I9H       0.100000
     13 CAQ          1.5830     2.9360    -1.8360 c3         1 I9H      -0.121100
     14 CAJ          4.3250     2.5900     0.0580 c          1 I9H       0.600100
     15 OAP          4.8010     2.7140     1.1720 o          1 I9H      -0.563100
     16 CAO          5.0280     3.1750    -1.1560 c3         1 I9H       0.087600
     17 OAU          6.1370     3.8940    -0.7070 oh         1 I9H      -0.622000
     18 CAE          1.1650     1.9360     1.3710 c5         1 I9H       0.202800
     19 NAI          0.2090     0.9770     0.8320 nh         1 I9H      -0.471700
     20 CAN         -1.1280     1.1350     0.7720 c2         1 I9H       0.956100
     21 NAT         -1.5710     2.3370     1.0340 ne         1 I9H      -0.638700
     22 CAX         -2.8240     2.6240     1.2500 cg         1 I9H       0.430000
     23 NBA         -3.8950     3.0080     1.4880 n1         1 I9H      -0.523000
     24 NAS         -1.8470     0.0430     0.4570 nu         1 I9H      -0.950200
     25 CAW         -3.1400     0.0480    -0.1040 ca         1 I9H       0.301000
     26 CAY         -4.0660    -0.8710     0.3670 ca         1 I9H      -0.136000
     27 CAZ         -3.4730     0.9110    -1.1420 ca         1 I9H      -0.142000
     28 CBC         -4.7450     0.8500    -1.6800 ca         1 I9H      -0.059000
     29 CBD         -5.6860    -0.0680    -1.2300 ca         1 I9H      -0.157000
     30 CBB         -5.3290    -0.9350    -0.2050 ca         1 I9H       0.150100
     31 OBE         -6.1310    -1.9130     0.3310 os         1 I9H      -0.394100
     32 CBF         -7.4680    -1.9700     0.1300 c3         1 I9H       0.395300
     33 FBH         -8.0640    -0.7950     0.4280 f          1 I9H      -0.129000
     34 FBG         -7.7650    -2.2270    -1.1670 f          1 I9H      -0.129000
     35 HAG          1.4050    -2.5430    -0.3580 ha         1 I9H       0.131000
     36 HAL          2.9240    -4.4100    -0.8130 ha         1 I9H       0.135500
     37 HAM          6.2350    -2.0570     0.5690 ha         1 I9H       0.135500
     38 HAH          4.7270    -0.1990     1.0380 ha         1 I9H       0.131000
     39 HAB          3.1890     1.3230     1.8010 h1         1 I9H       0.120700
     40 HAE1         1.0730     1.9730     2.4570 h1         1 I9H       0.090200
     41 HAE2         1.0150     2.9360     0.9760 h1         1 I9H       0.090200
     42 HAK1         3.3530     1.7880    -2.2520 h1         1 I9H       0.051700
     43 HAK2         2.0650     0.8560    -1.5910 h1         1 I9H       0.051700
     44 HAQ1         0.6990     2.9210    -1.1990 hc         1 I9H       0.048367
     45 HAQ2         2.0430     3.9200    -1.7490 hc         1 I9H       0.048367
     46 HAQ3         1.2420     2.8170    -2.8640 hc         1 I9H       0.048367
     47 HAO1         5.3120     2.3480    -1.8210 h1         1 I9H       0.037200
     48 HAO2         4.3290     3.8040    -1.7220 h1         1 I9H       0.037200
     49 HAU          6.5890     4.2390    -1.4820 ho         1 I9H       0.448000
     50 HAS         -1.3440    -0.8350     0.4470 hn         1 I9H       0.521000
     51 HAY         -3.8070    -1.5380     1.1800 ha         1 I9H       0.138000
     52 HAZ         -2.7500     1.6120    -1.5380 ha         1 I9H       0.129000
     53 HBC         -5.0140     1.5190    -2.4860 ha         1 I9H       0.123000
     54 HBD         -6.6550    -0.0870    -1.7040 ha         1 I9H       0.138000
     55 HBF         -7.8730    -2.7620     0.7560 h3         1 I9H       0.108700
@<TRIPOS>BOND
     1     1     2 ar  
     2     1     7 ar  
     3     1    35 1   
     4     2     3 ar  
     5     2    36 1   
     6     3     4 1   
     7     3     5 ar  
     8     5     6 ar  
     9     5    37 1   
    10     6     7 ar  
    11     6    38 1   
    12     7     8 1   
    13     8     9 2   
    14     8    10 1   
    15     9    19 1   
    16    10    11 1   
    17    10    18 1   
    18    10    39 1   
    19    11    12 1   
    20    11    14 1   
    21    12    13 1   
    22    12    42 1   
    23    12    43 1   
    24    13    44 1   
    25    13    45 1   
    26    13    46 1   
    27    14    15 2   
    28    14    16 1   
    29    16    17 1   
    30    16    47 1   
    31    16    48 1   
    32    17    49 1   
    33    18    19 1   
    34    18    40 1   
    35    18    41 1   
    36    19    20 1   
    37    20    21 2   
    38    20    24 1   
    39    21    22 1   
    40    22    23 3   
    41    24    25 1   
    42    24    50 1   
    43    25    26 ar  
    44    25    27 ar  
    45    26    30 ar  
    46    26    51 1   
    47    27    28 ar  
    48    27    52 1   
    49    28    29 ar  
    50    28    53 1   
    51    29    30 ar  
    52    29    54 1   
    53    30    31 1   
    54    31    32 1   
    55    32    33 1   
    56    32    34 1   
    57    32    55 1   
@<TRIPOS>SUBSTRUCTURE
     1 I9H         1 TEMP              0 ****  ****    0 ROOT
