@<TRIPOS>MOLECULE
I9K
   58    61     1     0     0
SMALL
bcc


@<TRIPOS>ATOM
      1 C10         -9.0470   -60.7450    42.7910 ca         1 I9K       0.053000
      2 C12         -6.2290   -62.6120    41.6120 c6         1 I9K       0.166300
      3 C13         -5.3360   -63.4750    40.7380 c6         1 I9K       0.112500
      4 C15         -6.2240   -64.0150    37.0620 c3         1 I9K      -0.155400
      5 C21         -6.3370   -60.9620    39.8220 c6         1 I9K       0.166300
      6 C22         -8.7800   -58.7480    41.4350 ca         1 I9K       0.278100
      7 C23        -10.1730   -58.6580    41.3560 ca         1 I9K      -0.151000
      8 C1         -13.3060   -60.4310    42.5560 ca         1 I9K      -0.125600
      9 C2         -14.6910   -60.3060    42.4830 ca         1 I9K      -0.086000
     10 C3         -15.5060   -61.2340    43.1080 ca         1 I9K      -0.126000
     11 C4         -14.9440   -62.2940    43.8100 ca         1 I9K      -0.121000
     12 C5         -13.5680   -62.4250    43.8880 ca         1 I9K      -0.086000
     13 C6         -12.7400   -61.4970    43.2630 ca         1 I9K      -0.113600
     14 C7         -11.2690   -61.6600    43.3640 c          1 I9K       0.603300
     15 C8         -10.9820   -59.5860    41.9760 ca         1 I9K      -0.041600
     16 C9         -10.4250   -60.6490    42.6990 ca         1 I9K      -0.201600
     17 O2          -8.1340   -62.5860    37.5000 oh         1 I9K      -0.664800
     18 C11         -8.2270   -59.8180    42.1650 ca         1 I9K      -0.405500
     19 C14         -5.9440   -64.2860    38.5230 c          1 I9K       0.695100
     20 C16         -7.7130   -63.7080    36.7620 c3         1 I9K       0.042800
     21 C17         -8.5600   -64.9260    37.2270 c          1 I9K       0.948600
     22 C18         -7.8390   -63.4290    35.2670 c3         1 I9K      -0.178400
     23 C20         -5.4670   -61.8610    38.9590 c6         1 I9K       0.112500
     24 O4          -9.2720   -64.6970    38.2350 o          1 I9K      -0.832300
     25 O9          -6.1640   -60.5280    43.6350 o          1 I9K      -0.635800
     26 S           -6.4720   -60.0460    42.3050 sy         1 I9K       1.297200
     27 O8          -5.8680   -58.7950    41.8400 o          1 I9K      -0.635800
     28 O10         -8.0830   -57.8080    40.8180 oh         1 I9K      -0.493100
     29 C          -12.4600   -59.4220    41.8810 c          1 I9K       0.591300
     30 O          -12.9430   -58.4900    41.2760 o          1 I9K      -0.509100
     31 N           -6.0370   -61.2110    41.2350 n3         1 I9K      -0.709500
     32 N1          -5.6200   -63.2480    39.3360 n          1 I9K      -0.487800
     33 O7          -6.0080   -65.4290    38.9590 o          1 I9K      -0.606100
     34 O6          -9.2430   -62.0850    33.9080 o          1 I9K      -0.857300
     35 O5         -10.2240   -63.5370    35.2830 o          1 I9K      -0.857300
     36 H4          -8.6150   -61.5510    43.3700 ha         1 I9K       0.165000
     37 H5          -5.9530   -62.7590    42.6540 h1         1 I9K       0.070200
     38 H6          -7.2760   -62.9140    41.4810 h1         1 I9K       0.070200
     39 H7          -4.2870   -63.2360    40.9440 h1         1 I9K       0.056950
     40 H8          -5.4990   -64.5200    40.9840 h1         1 I9K       0.056950
     41 H9          -5.6030   -63.2100    36.6660 hc         1 I9K       0.044200
     42 H10         -5.9430   -64.9170    36.5190 hc         1 I9K       0.044200
     43 H18         -6.1150   -59.9270    39.5680 h1         1 I9K       0.070200
     44 H19         -7.3920   -61.1600    39.6120 h1         1 I9K       0.070200
     45 H21        -10.6060   -57.8320    40.8060 ha         1 I9K       0.169000
     46 H          -15.1290   -59.4820    41.9380 ha         1 I9K       0.151000
     47 H1         -16.5810   -61.1330    43.0480 ha         1 I9K       0.128000
     48 H2         -15.5820   -63.0180    44.3000 ha         1 I9K       0.128000
     49 H3         -13.1330   -63.2500    44.4350 ha         1 I9K       0.155000
     50 H11         -8.7700   -62.9990    38.1210 ho         1 I9K       0.437000
     51 H13         -7.0930   -62.6810    34.9800 hc         1 I9K       0.007700
     52 H14         -7.5730   -64.3400    34.7220 hc         1 I9K       0.007700
     53 H16         -4.4190   -61.5660    39.0780 h1         1 I9K       0.056950
     54 H17         -5.7450   -61.6980    37.9250 h1         1 I9K       0.056950
     55 H20         -7.1300   -57.9010    41.0190 ho         1 I9K       0.483000
     56 O1         -10.7770   -62.5910    43.9690 o          1 I9K      -0.519100
     57 C19         -9.2290   -62.9690    34.7890 c          1 I9K       0.936600
     58 O3          -8.4280   -65.9990    36.6230 o          1 I9K      -0.832300
@<TRIPOS>BOND
     1     1    16 ar  
     2     1    18 ar  
     3     1    36 1   
     4     2     3 1   
     5     2    31 1   
     6     2    37 1   
     7     2    38 1   
     8     3    32 1   
     9     3    39 1   
    10     3    40 1   
    11     4    19 1   
    12     4    20 1   
    13     4    41 1   
    14     4    42 1   
    15     5    23 1   
    16     5    31 1   
    17     5    43 1   
    18     5    44 1   
    19     6     7 ar  
    20     6    18 ar  
    21     6    28 1   
    22     7    15 ar  
    23     7    45 1   
    24     8     9 ar  
    25     8    13 ar  
    26     8    29 1   
    27     9    10 ar  
    28     9    46 1   
    29    10    11 ar  
    30    10    47 1   
    31    11    12 ar  
    32    11    48 1   
    33    12    13 ar  
    34    12    49 1   
    35    13    14 1   
    36    14    16 1   
    37    14    56 2   
    38    15    16 ar  
    39    15    29 1   
    40    17    20 1   
    41    17    50 1   
    42    18    26 1   
    43    19    32 1   
    44    19    33 2   
    45    20    21 1   
    46    20    22 1   
    47    21    24 1   
    48    21    58 1   
    49    22    51 1   
    50    22    52 1   
    51    22    57 1   
    52    23    32 1   
    53    23    53 1   
    54    23    54 1   
    55    25    26 2   
    56    26    27 2   
    57    26    31 1   
    58    28    55 1   
    59    29    30 2   
    60    34    57 1   
    61    35    57 1   
@<TRIPOS>SUBSTRUCTURE
     1 I9K         1 TEMP              0 ****  ****    0 ROOT
