@<TRIPOS>MOLECULE
I9K
   58    61     1     0     0
SMALL
No Charge or Current Charge


@<TRIPOS>ATOM
      1 C10         -9.5680   -60.9540    43.1640 ca         1 I9K       0.071000
      2 C12         -5.2400   -62.2510    41.1670 c6         1 I9K       0.166300
      3 C13         -4.8410   -62.3050    39.6710 c6         1 I9K       0.112500
      4 C15         -6.6970   -63.3040    36.3370 c3         1 I9K      -0.155400
      5 C21         -7.5950   -62.1300    40.6220 c6         1 I9K       0.166300
      6 C22         -8.3880   -58.8980    42.6290 ca         1 I9K       0.278100
      7 C23         -9.6130   -58.2290    42.5360 ca         1 I9K      -0.133000
      8 C1         -13.4200   -58.9150    42.8920 ca         1 I9K      -0.125600
      9 C2         -14.6660   -58.2500    42.8020 ca         1 I9K      -0.068000
     10 C3         -15.8650   -58.9430    43.0260 ca         1 I9K      -0.108000
     11 C4         -15.8370   -60.3080    43.3420 ca         1 I9K      -0.103000
     12 C5         -14.6090   -60.9810    43.4350 ca         1 I9K      -0.068000
     13 C6         -13.3910   -60.2970    43.2120 ca         1 I9K      -0.113600
     14 C7         -12.0830   -61.0460    43.3190 c          1 I9K       0.603300
     15 C8         -10.8350   -58.9040    42.7540 ca         1 I9K      -0.041600
     16 C9         -10.8060   -60.2830    43.0750 ca         1 I9K      -0.201600
     17 O2          -7.4510   -65.2720    37.5450 oh         1 I9K      -0.727000
     18 C11         -8.3600   -60.2670    42.9330 ca         1 I9K      -0.405500
     19 C14         -5.5950   -63.0220    37.3840 c          1 I9K       0.628100
     20 C16         -7.0520   -64.8210    36.2270 c3         1 I9K       0.066000
     21 C17         -5.8000   -65.6580    35.7000 c          1 I9K       0.738000
     22 C18         -8.2740   -65.0030    35.2680 c3         1 I9K      -0.178400
     23 C20         -7.2990   -62.2090    39.1000 c6         1 I9K       0.112500
     24 O4          -5.4180   -66.5880    36.4030 o          1 I9K      -0.727000
     25 O9          -7.0140   -62.4530    43.6960 o          1 I9K      -0.565000
     26 S           -6.8180   -61.1680    43.0200 sy         1 I9K       1.155600
     27 O8          -5.7930   -60.2040    43.4330 o          1 I9K      -0.565000
     28 O10         -7.2440   -58.1880    42.4310 oh         1 I9K      -0.532100
     29 C          -12.1420   -58.1490    42.6480 c          1 I9K       0.591300
     30 O          -12.1640   -56.9530    42.3720 o          1 I9K      -0.509100
     31 N           -6.4940   -61.4960    41.3870 n3         1 I9K      -0.709500
     32 N1          -5.9320   -62.6920    38.7230 n          1 I9K      -0.420800
     33 O7          -4.4170   -63.1070    37.0560 o          1 I9K      -0.606100
     34 O6          -9.4690   -67.0090    35.7730 o          1 I9K      -0.752000
     35 O5          -8.0850   -67.0860    34.1320 o          1 I9K      -0.752000
     36 H4          -9.5480   -62.0180    43.4040 ha         1 I9K       0.147000
     37 H5          -4.4060   -61.7970    41.7230 h1         1 I9K       0.070200
     38 H6          -5.3450   -63.2810    41.5400 h1         1 I9K       0.070200
     39 H7          -4.4730   -61.3120    39.3770 h1         1 I9K       0.056950
     40 H8          -3.9980   -63.0030    39.5670 h1         1 I9K       0.056950
     41 H9          -7.6150   -62.7650    36.5820 hc         1 I9K       0.044200
     42 H10         -6.3440   -62.9590    35.3580 hc         1 I9K       0.044200
     43 H18         -8.5370   -61.5780    40.7380 h1         1 I9K       0.070200
     44 H19         -7.7760   -63.1490    40.9950 h1         1 I9K       0.070200
     45 H21         -9.6090   -57.1690    42.2970 ha         1 I9K       0.151000
     46 H          -14.7090   -57.1910    42.5580 ha         1 I9K       0.133000
     47 H1         -16.8170   -58.4200    42.9530 ha         1 I9K       0.110000
     48 H2         -16.7670   -60.8460    43.5150 ha         1 I9K       0.110000
     49 H3         -14.6090   -62.0410    43.6820 ha         1 I9K       0.137000
     50 H11         -6.8960   -66.0740    37.7050 ho         1 I9K       0.476000
     51 H13         -9.1170   -64.4780    35.7360 hc         1 I9K       0.007700
     52 H14         -7.9650   -64.5570    34.3150 hc         1 I9K       0.007700
     53 H16         -7.4380   -61.2090    38.6680 h1         1 I9K       0.056950
     54 H17         -8.0630   -62.8640    38.6610 h1         1 I9K       0.056950
     55 H20         -6.4950   -58.7630    42.7230 ho         1 I9K       0.522000
     56 O1         -12.0580   -62.2400    43.5950 o          1 I9K      -0.519100
     57 C19         -8.6290   -66.4910    35.0500 c          1 I9K       0.726000
     58 O3          -5.2240   -65.3140    34.6740 o          1 I9K      -0.727000
@<TRIPOS>BOND
     1     1    16 ar  
     2     1    18 ar  
     3     1    36 1   
     4     2     3 1   
     5     2    31 1   
     6     2    37 1   
     7     2    38 1   
     8     3    32 1   
     9     3    39 1   
    10     3    40 1   
    11     4    19 1   
    12     4    20 1   
    13     4    41 1   
    14     4    42 1   
    15     5    23 1   
    16     5    31 1   
    17     5    43 1   
    18     5    44 1   
    19     6     7 ar  
    20     6    18 ar  
    21     6    28 1   
    22     7    15 ar  
    23     7    45 1   
    24     8     9 ar  
    25     8    13 ar  
    26     8    29 1   
    27     9    10 ar  
    28     9    46 1   
    29    10    11 ar  
    30    10    47 1   
    31    11    12 ar  
    32    11    48 1   
    33    12    13 ar  
    34    12    49 1   
    35    13    14 1   
    36    14    16 1   
    37    14    56 2   
    38    15    16 ar  
    39    15    29 1   
    40    17    20 1   
    41    17    50 1   
    42    18    26 1   
    43    19    32 1   
    44    19    33 2   
    45    20    21 1   
    46    20    22 1   
    47    21    24 1   
    48    21    58 1   
    49    22    51 1   
    50    22    52 1   
    51    22    57 1   
    52    23    32 1   
    53    23    53 1   
    54    23    54 1   
    55    25    26 2   
    56    26    27 2   
    57    26    31 1   
    58    28    55 1   
    59    29    30 2   
    60    34    57 1   
    61    35    57 1   
@<TRIPOS>SUBSTRUCTURE
     1 I9K         1 TEMP              0 ****  ****    0 ROOT
