@<TRIPOS>MOLECULE
I9L
   17    19     1     0     0
SMALL
No Charge or Current Charge


@<TRIPOS>ATOM
      1 C4          14.7320   -14.7640   -10.5510 ca         1 I9L      -0.001200
      2 C5          14.3620   -14.5900    -9.2200 ca         1 I9L      -0.167000
      3 C6          13.0130   -14.6720    -8.8380 ca         1 I9L      -0.054000
      4 C7          16.7640   -14.4450    -9.5510 cc         1 I9L       0.435800
      5 C8          16.9070   -15.3660   -11.5270 cc         1 I9L       0.402400
      6 N1          17.9640   -14.9930    -9.6160 nd         1 I9L      -0.315000
      7 N2          18.0810   -15.5080   -10.9040 nd         1 I9L      -0.344000
      8 C3          13.7820   -15.0220   -11.5500 ca         1 I9L      -0.087000
      9 N3          16.0910   -14.6310   -10.7080 na         1 I9L      -0.263800
     10 C1          12.0440   -14.9290    -9.8290 ca         1 I9L       0.116000
     11 C2          12.4240   -15.1040   -11.1780 ca         1 I9L      -0.082000
     12 S1          15.7500   -14.3110    -8.1070 ss         1 I9L       0.046700
     13 H1          12.7190   -14.5450    -7.7990 ha         1 I9L       0.147000
     14 H2          16.6150   -15.7510   -12.4960 h5         1 I9L       0.073100
     15 H3          14.0790   -15.1490   -12.5890 ha         1 I9L       0.134000
     16 H4          11.6660   -15.3010   -11.9310 ha         1 I9L       0.140000
     17 Cl1         10.3460   -15.0370    -9.3810 cl         1 I9L      -0.181000
@<TRIPOS>BOND
     1     1     2 ar  
     2     1     8 ar  
     3     1     9 1   
     4     2     3 ar  
     5     2    12 1   
     6     3    10 ar  
     7     3    13 1   
     8     4     6 2   
     9     4     9 1   
    10     4    12 1   
    11     5     7 2   
    12     5     9 1   
    13     5    14 1   
    14     6     7 1   
    15     8    11 ar  
    16     8    15 1   
    17    10    11 ar  
    18    10    17 1   
    19    11    16 1   
@<TRIPOS>SUBSTRUCTURE
     1 I9L         1 TEMP              0 ****  ****    0 ROOT
