@<TRIPOS>MOLECULE
I9L
   17    19     1     0     0
SMALL
abcg2


@<TRIPOS>ATOM
      1 C4          14.6760   -14.9870   -10.5140 ca         1 I9L      -0.001200
      2 C5          14.3080   -14.6950    -9.2000 ca         1 I9L      -0.167000
      3 C6          12.9750   -14.6100    -8.8400 ca         1 I9L      -0.054000
      4 C7          16.7420   -14.7700    -9.4850 cc         1 I9L       0.435800
      5 C8          17.0250   -15.2290   -11.5640 cc         1 I9L       0.402400
      6 N1          18.0230   -14.8190    -9.6800 nd         1 I9L      -0.315000
      7 N2          18.1920   -15.1110   -11.0020 nd         1 I9L      -0.344000
      8 C3          13.7260   -15.1970   -11.4950 ca         1 I9L      -0.087000
      9 N3          16.0580   -15.0190   -10.6320 na         1 I9L      -0.263800
     10 C1          12.0300   -14.8250    -9.8320 ca         1 I9L       0.116000
     11 C2          12.3890   -15.1150   -11.1440 ca         1 I9L      -0.082000
     12 S1          15.6910   -14.4670    -8.1370 ss         1 I9L       0.046700
     13 H1          12.6800   -14.3830    -7.8240 ha         1 I9L       0.147000
     14 H2          16.8300   -15.4570   -12.5990 h5         1 I9L       0.073100
     15 H3          14.0140   -15.4240   -12.5130 ha         1 I9L       0.134000
     16 H4          11.6270   -15.2790   -11.8930 ha         1 I9L       0.140000
     17 CL1         10.3540   -14.7310    -9.4210 cl         1 I9L      -0.181000
@<TRIPOS>BOND
     1     1     2 ar  
     2     1     8 ar  
     3     1     9 1   
     4     2     3 ar  
     5     2    12 1   
     6     3    10 ar  
     7     3    13 1   
     8     4     6 2   
     9     4     9 1   
    10     4    12 1   
    11     5     7 2   
    12     5     9 1   
    13     5    14 1   
    14     6     7 1   
    15     8    11 ar  
    16     8    15 1   
    17    10    11 ar  
    18    10    17 1   
    19    11    16 1   
@<TRIPOS>SUBSTRUCTURE
     1 I9L         1 TEMP              0 ****  ****    0 ROOT
