@<TRIPOS>MOLECULE
I9N
   43    46     1     0     0
SMALL
abcg2


@<TRIPOS>ATOM
      1 O1          29.5830     6.8700     4.3610 o          1 I9N      -0.548000
      2 C2          32.9970     8.0860     5.6220 c6         1 I9N       0.229300
      3 C4          31.9410     7.4600     7.9530 c6         1 I9N       0.155800
      4 C5          31.0730     7.0050     6.7850 c6         1 I9N       0.229300
      5 C6          30.2610     9.9430     4.0700 ca         1 I9N       0.027000
      6 C7          30.1910    11.2090     3.5450 ca         1 I9N      -0.157600
      7 C9          30.7360    12.8310     1.7180 c          1 I9N       0.609300
      8 C11         29.5020    12.2670     4.3100 c          1 I9N       0.595300
      9 C12         29.5020    13.6360     3.7390 ca         1 I9N      -0.122600
     10 C13         30.0900    13.9040     2.4980 ca         1 I9N      -0.133600
     11 C14         30.0730    15.1990     1.9880 ca         1 I9N      -0.061000
     12 C16         28.8920    15.9560     3.9400 ca         1 I9N      -0.091000
     13 C17         28.9030    14.6690     4.4530 ca         1 I9N      -0.070000
     14 O5          28.9580    12.0300     5.3690 o          1 I9N      -0.510100
     15 C1          30.9210     8.9290     3.3700 ca         1 I9N      -0.368500
     16 S           30.9410     7.3220     4.1240 sy         1 I9N       1.201600
     17 O2          31.8020     6.4910     3.2690 o          1 I9N      -0.548000
     18 N           31.6190     7.6140     5.5640 n3         1 I9N      -0.791500
     19 N1          32.2050     8.8760     7.8060 n7         1 I9N      -0.860400
     20 C3          33.1100     9.1640     6.6980 c6         1 I9N       0.155800
     21 C15         29.4770    16.2210     2.7070 ca         1 I9N      -0.102000
     22 C8          30.7800    11.4810     2.2890 ca         1 I9N      -0.199600
     23 C10         31.4230    10.4700     1.5820 ca         1 I9N       0.164100
     24 O4          31.9950    10.6350     0.4030 oh         1 I9N      -0.515100
     25 C           31.5050     9.1570     2.1300 ca         1 I9N       0.246100
     26 O           32.1490     8.2720     1.3930 oh         1 I9N      -0.505100
     27 H1          33.6730     7.2510     5.8190 h1         1 I9N       0.056700
     28 H2          33.2960     8.5070     4.6610 h1         1 I9N       0.056700
     29 H6          32.8470     6.8410     8.0150 h1         1 I9N       0.041200
     30 H7          31.3840     7.2890     8.8740 h1         1 I9N       0.041200
     31 H8          31.0660     5.9140     6.7300 h1         1 I9N       0.056700
     32 H9          30.0520     7.3550     6.9310 h1         1 I9N       0.056700
     33 H10         29.8200     9.7340     5.0360 ha         1 I9N       0.155000
     34 H12         30.5260    15.4090     1.0290 ha         1 I9N       0.139000
     35 H14         28.4270    16.7550     4.5020 ha         1 I9N       0.122000
     36 H15         28.4460    14.4650     5.4110 ha         1 I9N       0.140000
     37 H16         32.5730     9.2590     8.6650 hn         1 I9N       0.422000
     38 H3          34.1620     9.2130     7.0040 h1         1 I9N       0.041200
     39 H4          32.8530    10.1370     6.2690 h1         1 I9N       0.041200
     40 H13         29.4690    17.2260     2.3080 ha         1 I9N       0.123000
     41 H11         31.8700    11.5750     0.1390 ho         1 I9N       0.515000
     42 H           32.1830     7.4120     1.8670 ho         1 I9N       0.524000
     43 O3          31.2300    13.0690     0.6200 o          1 I9N      -0.560100
@<TRIPOS>BOND
     1     1    16 2   
     2     2    18 1   
     3     2    20 1   
     4     2    27 1   
     5     2    28 1   
     6     3     4 1   
     7     3    19 1   
     8     3    29 1   
     9     3    30 1   
    10     4    18 1   
    11     4    31 1   
    12     4    32 1   
    13     5     6 ar  
    14     5    15 ar  
    15     5    33 1   
    16     6     8 1   
    17     6    22 ar  
    18     7    10 1   
    19     7    22 1   
    20     7    43 2   
    21     8     9 1   
    22     8    14 2   
    23     9    10 ar  
    24     9    13 ar  
    25    10    11 ar  
    26    11    21 ar  
    27    11    34 1   
    28    12    13 ar  
    29    12    21 ar  
    30    12    35 1   
    31    13    36 1   
    32    15    16 1   
    33    15    25 ar  
    34    16    17 2   
    35    16    18 1   
    36    19    20 1   
    37    19    37 1   
    38    20    38 1   
    39    20    39 1   
    40    21    40 1   
    41    22    23 ar  
    42    23    24 1   
    43    23    25 ar  
    44    24    41 1   
    45    25    26 1   
    46    26    42 1   
@<TRIPOS>SUBSTRUCTURE
     1 I9N         1 TEMP              0 ****  ****    0 ROOT
