@<TRIPOS>MOLECULE
I9N
   43    46     1     0     0
SMALL
No Charge or Current Charge


@<TRIPOS>ATOM
      1 O1          29.1710     7.2580     4.7140 o          1 I9N      -0.548000
      2 C2          32.7410     8.3820     5.7000 c6         1 I9N       0.229300
      3 C4          32.3740     6.7610     7.9710 c6         1 I9N       0.155800
      4 C5          31.3770     6.6150     6.7650 c6         1 I9N       0.229300
      5 C6          29.9900    10.1260     4.0640 ca         1 I9N       0.027000
      6 C7          30.0370    11.4040     3.4680 ca         1 I9N      -0.157600
      7 C9          30.8610    12.9780     1.6490 c          1 I9N       0.609300
      8 C11         29.2610    12.5330     4.1100 c          1 I9N       0.595300
      9 C12         29.3250    13.8950     3.4630 ca         1 I9N      -0.122600
     10 C13         30.0880    14.1060     2.2880 ca         1 I9N      -0.133600
     11 C14         30.1250    15.3960     1.7090 ca         1 I9N      -0.061000
     12 C16         28.6600    16.2520     3.4470 ca         1 I9N      -0.091000
     13 C17         28.6140    14.9780     4.0320 ca         1 I9N      -0.070000
     14 O5          28.5980    12.3480     5.1250 o          1 I9N      -0.510100
     15 C1          30.6920     9.0400     3.5130 ca         1 I9N      -0.368500
     16 S           30.5760     7.4620     4.3540 sy         1 I9N       1.201600
     17 O2          31.3550     6.4600     3.6190 o          1 I9N      -0.548000
     18 N           31.3880     7.7650     5.8070 n3         1 I9N      -0.791500
     19 N1          32.7340     8.1740     8.2810 n7         1 I9N      -0.860400
     20 C3          33.2760     8.8970     7.0860 c6         1 I9N       0.155800
     21 C15         29.4150    16.4620     2.2850 ca         1 I9N      -0.102000
     22 C8          30.8060    11.6060     2.2910 ca         1 I9N      -0.199600
     23 C10         31.5160    10.5070     1.7360 ca         1 I9N       0.164100
     24 O4          32.2680    10.6780     0.5990 oh         1 I9N      -0.515100
     25 C           31.4600     9.2240     2.3460 ca         1 I9N       0.246100
     26 O           32.1600     8.1850     1.7870 oh         1 I9N      -0.505100
     27 H1          33.4530     7.6430     5.3030 h1         1 I9N       0.056700
     28 H2          32.7520     9.2320     5.0040 h1         1 I9N       0.056700
     29 H6          33.2970     6.2160     7.7230 h1         1 I9N       0.041200
     30 H7          31.9450     6.2780     8.8610 h1         1 I9N       0.041200
     31 H8          31.6190     5.6730     6.2500 h1         1 I9N       0.056700
     32 H9          30.3610     6.4930     7.1710 h1         1 I9N       0.056700
     33 H10         29.4050     9.9740     4.9720 ha         1 I9N       0.155000
     34 H12         30.7060    15.5800     0.8070 ha         1 I9N       0.139000
     35 H14         28.1090    17.0770     3.8950 ha         1 I9N       0.122000
     36 H15         28.0220    14.8350     4.9350 ha         1 I9N       0.140000
     37 H16         33.4200     8.2080     9.0470 hn         1 I9N       0.422000
     38 H3          34.3730     8.8190     7.0780 h1         1 I9N       0.041200
     39 H4          33.0340     9.9650     7.1890 h1         1 I9N       0.041200
     40 H13         29.4510    17.4490     1.8300 ha         1 I9N       0.123000
     41 H11         32.1750    11.6290     0.3350 ho         1 I9N       0.515000
     42 H           31.9980     7.3740     2.3280 ho         1 I9N       0.524000
     43 O3          31.5190    13.1690     0.6300 o          1 I9N      -0.560100
@<TRIPOS>BOND
     1     1    16 2   
     2     2    18 1   
     3     2    20 1   
     4     2    27 1   
     5     2    28 1   
     6     3     4 1   
     7     3    19 1   
     8     3    29 1   
     9     3    30 1   
    10     4    18 1   
    11     4    31 1   
    12     4    32 1   
    13     5     6 ar  
    14     5    15 ar  
    15     5    33 1   
    16     6     8 1   
    17     6    22 ar  
    18     7    10 1   
    19     7    22 1   
    20     7    43 2   
    21     8     9 1   
    22     8    14 2   
    23     9    10 ar  
    24     9    13 ar  
    25    10    11 ar  
    26    11    21 ar  
    27    11    34 1   
    28    12    13 ar  
    29    12    21 ar  
    30    12    35 1   
    31    13    36 1   
    32    15    16 1   
    33    15    25 ar  
    34    16    17 2   
    35    16    18 1   
    36    19    20 1   
    37    19    37 1   
    38    20    38 1   
    39    20    39 1   
    40    21    40 1   
    41    22    23 ar  
    42    23    24 1   
    43    23    25 ar  
    44    24    41 1   
    45    25    26 1   
    46    26    42 1   
@<TRIPOS>SUBSTRUCTURE
     1 I9N         1 TEMP              0 ****  ****    0 ROOT
