@<TRIPOS>MOLECULE
I9O
   34    36     1     0     0
SMALL
No Charge or Current Charge


@<TRIPOS>ATOM
      1 C2          27.8980     8.9620    22.5240 c3         1 I9O       0.356300
      2 C11         25.4080     9.8880    19.7330 ca         1 I9O      -0.123000
      3 C13         26.0890     9.1580    20.7210 ca         1 I9O      -0.060000
      4 C15         27.2140    13.2670    19.8710 c3         1 I9O       0.216100
      5 C19         29.0090    12.6670    18.2480 c6         1 I9O       0.169800
      6 C22         29.4290    12.6870    16.7470 c6         1 I9O       0.006900
      7 C25         29.3030    14.0830    16.1940 cc         1 I9O      -0.194300
      8 C27         29.3780    15.9270    14.9630 cc         1 I9O       0.392400
      9 F1          27.1480     7.9750    23.0670 f          1 I9O      -0.115000
     10 F3          29.0040     8.3790    22.0110 f          1 I9O      -0.115000
     11 F4          28.3030     9.7450    23.5500 f          1 I9O      -0.115000
     12 C5          27.1390     9.7550    21.4530 ca         1 I9O      -0.198300
     13 C6          27.5000    11.0900    21.1660 ca         1 I9O      -0.066000
     14 C8          26.8180    11.8250    20.1760 ca         1 I9O      -0.090300
     15 C9          25.7700    11.2180    19.4610 ca         1 I9O      -0.061000
     16 N18         27.7560    13.4510    18.5030 n3         1 I9O      -0.730600
     17 N26         29.7840    14.6120    15.0180 na         1 I9O      -0.294500
     18 N29         28.6680    16.2440    16.0410 nd         1 I9O      -0.662000
     19 C31         28.6140    15.0920    16.8050 cd         1 I9O       0.235300
     20 C32         27.9340    14.9050    18.1580 c6         1 I9O       0.153500
     21 H1          24.6010     9.4210    19.1730 ha         1 I9O       0.120000
     22 H2          25.7990     8.1260    20.9100 ha         1 I9O       0.130000
     23 H3          27.9480    13.6080    20.6150 h1         1 I9O       0.044200
     24 H4          26.3200    13.8920    20.0010 h1         1 I9O       0.044200
     25 H6          29.8320    13.0780    18.8510 h1         1 I9O       0.040200
     26 H7          28.7830    12.0000    16.1850 hc         1 I9O       0.053700
     27 H8          30.4540    12.3060    16.6450 hc         1 I9O       0.053700
     28 H9          29.6270    16.5810    14.1350 h5         1 I9O       0.055100
     29 H10         28.3180    11.5600    21.7090 ha         1 I9O       0.124000
     30 H11         25.2420    11.7760    18.6910 ha         1 I9O       0.138000
     31 H13         30.3330    14.1400    14.3100 hn         1 I9O       0.351000
     32 H15         28.5460    15.4030    18.9240 h1         1 I9O       0.049700
     33 H16         26.9590    15.4140    18.1480 h1         1 I9O       0.049700
     34 H5          28.8870    11.6170    18.5520 h1         1 I9O       0.040200
@<TRIPOS>BOND
     1     1     9 1   
     2     1    10 1   
     3     1    11 1   
     4     1    12 1   
     5     2     3 ar  
     6     2    15 ar  
     7     2    21 1   
     8     3    12 ar  
     9     3    22 1   
    10     4    14 1   
    11     4    16 1   
    12     4    23 1   
    13     4    24 1   
    14     5     6 1   
    15     5    16 1   
    16     5    25 1   
    17     5    34 1   
    18     6     7 1   
    19     6    26 1   
    20     6    27 1   
    21     7    17 1   
    22     7    19 2   
    23     8    17 1   
    24     8    18 2   
    25     8    28 1   
    26    12    13 ar  
    27    13    14 ar  
    28    13    29 1   
    29    14    15 ar  
    30    15    30 1   
    31    16    20 1   
    32    17    31 1   
    33    18    19 1   
    34    19    20 1   
    35    20    32 1   
    36    20    33 1   
@<TRIPOS>SUBSTRUCTURE
     1 I9O         1 TEMP              0 ****  ****    0 ROOT
