@<TRIPOS>MOLECULE
I9O
   34    36     1     0     0
SMALL
abcg2


@<TRIPOS>ATOM
      1 C2          27.2430     9.1190    22.8720 c3         1 I9O       0.356300
      2 C11         25.8740     9.8530    19.4270 ca         1 I9O      -0.123000
      3 C13         26.1250     9.1870    20.6200 ca         1 I9O      -0.060000
      4 C15         27.7810    13.1040    19.9320 c3         1 I9O       0.216100
      5 C19         29.2240    12.6760    18.0510 c6         1 I9O       0.169800
      6 C22         29.2870    12.7010    16.5230 c6         1 I9O       0.006900
      7 C25         29.0420    14.1030    16.1040 cc         1 I9O      -0.194300
      8 C27         28.8840    15.9990    15.0230 cc         1 I9O       0.392400
      9 F1          26.5680     7.9790    23.0400 f          1 I9O      -0.115000
     10 F3          28.5480     8.8220    22.9790 f          1 I9O      -0.115000
     11 F4          26.9510     9.9020    23.9200 f          1 I9O      -0.115000
     12 C5          26.9320     9.7910    21.5720 ca         1 I9O      -0.198300
     13 C6          27.4890    11.0430    21.3290 ca         1 I9O      -0.066000
     14 C8          27.2320    11.7160    20.1430 ca         1 I9O      -0.090300
     15 C9          26.4170    11.1060    19.1910 ca         1 I9O      -0.061000
     16 N18         28.0590    13.4000    18.5450 n3         1 I9O      -0.730600
     17 N26         29.2540    14.7060    14.8970 na         1 I9O      -0.294500
     18 N29         28.4470    16.2650    16.2290 nd         1 I9O      -0.662000
     19 C31         28.5420    15.0820    16.9060 cd         1 I9O       0.235300
     20 C32         28.1610    14.8360    18.3260 c6         1 I9O       0.153500
     21 H1          25.2470     9.3880    18.6780 ha         1 I9O       0.120000
     22 H2          25.6890     8.2120    20.7870 ha         1 I9O       0.130000
     23 H3          28.6610    13.2500    20.5790 h1         1 I9O       0.044200
     24 H4          27.0300    13.8190    20.2830 h1         1 I9O       0.044200
     25 H6          30.1570    13.0910    18.4640 h1         1 I9O       0.040200
     26 H7          28.5370    12.0240    16.1040 hc         1 I9O       0.053700
     27 H8          30.2630    12.3380    16.1930 hc         1 I9O       0.053700
     28 H9          28.9540    16.7000    14.2050 h5         1 I9O       0.055100
     29 H10         28.1300    11.5110    22.0680 ha         1 I9O       0.124000
     30 H11         26.2150    11.6160    18.2580 ha         1 I9O       0.138000
     31 H13         29.6220    14.2730    14.0640 hn         1 I9O       0.351000
     32 H15         28.8950    15.3050    19.0050 h1         1 I9O       0.049700
     33 H16         27.1940    15.2940    18.5520 h1         1 I9O       0.049700
     34 H5          29.1620    11.6410    18.3890 h1         1 I9O       0.040200
@<TRIPOS>BOND
     1     1     9 1   
     2     1    10 1   
     3     1    11 1   
     4     1    12 1   
     5     2     3 ar  
     6     2    15 ar  
     7     2    21 1   
     8     3    12 ar  
     9     3    22 1   
    10     4    14 1   
    11     4    16 1   
    12     4    23 1   
    13     4    24 1   
    14     5     6 1   
    15     5    16 1   
    16     5    25 1   
    17     5    34 1   
    18     6     7 1   
    19     6    26 1   
    20     6    27 1   
    21     7    17 1   
    22     7    19 2   
    23     8    17 1   
    24     8    18 2   
    25     8    28 1   
    26    12    13 ar  
    27    13    14 ar  
    28    13    29 1   
    29    14    15 ar  
    30    15    30 1   
    31    16    20 1   
    32    17    31 1   
    33    18    19 1   
    34    19    20 1   
    35    20    32 1   
    36    20    33 1   
@<TRIPOS>SUBSTRUCTURE
     1 I9O         1 TEMP              0 ****  ****    0 ROOT
