@<TRIPOS>MOLECULE
I9Q
   39    41     1     0     0
SMALL
No Charge or Current Charge


@<TRIPOS>ATOM
      1 C           -9.3160   -60.0790    40.8600 ca         1 I9Q      -0.266500
      2 C1          -8.6550   -60.4410    42.0420 ca         1 I9Q       0.230100
      3 C2          -9.3890   -60.7480    43.2070 ca         1 I9Q       0.094100
      4 C3         -10.7230   -60.0350    40.8430 ca         1 I9Q       0.038000
      5 C4         -11.4750   -60.3420    42.0010 ca         1 I9Q      -0.166600
      6 C5         -10.8070   -60.7010    43.2040 ca         1 I9Q      -0.180600
      7 C6         -11.6040   -61.0310    44.4510 c          1 I9Q       0.612300
      8 C7         -13.1100   -60.9650    44.3790 ca         1 I9Q      -0.133600
      9 C8         -13.8800   -61.2670    45.5260 ca         1 I9Q      -0.065000
     10 C9         -15.2820   -61.2140    45.4840 ca         1 I9Q      -0.110000
     11 C10        -15.9330   -60.8570    44.2950 ca         1 I9Q      -0.095000
     12 O2          -8.6990   -61.0970    44.3410 oh         1 I9Q      -0.572100
     13 C12        -13.7690   -60.6050    43.1760 ca         1 I9Q      -0.114600
     14 O5          -3.3900   -61.8700    37.7310 o          1 I9Q      -0.733000
     15 C11        -15.1820   -60.5550    43.1490 ca         1 I9Q      -0.072000
     16 S           -8.3990   -59.6600    39.3790 sy         1 I9Q       1.186600
     17 O6          -3.6460   -59.7830    37.2640 o          1 I9Q      -0.733000
     18 C16         -3.9210   -60.7840    37.9060 c          1 I9Q       0.729000
     19 C14         -6.3650   -61.0170    38.2280 c3         1 I9Q       0.241800
     20 C15         -5.0430   -60.6920    38.9390 c3         1 I9Q      -0.244400
     21 C13        -12.9830   -60.2760    41.9300 c          1 I9Q       0.592300
     22 O1          -7.2940   -60.5320    42.0980 oh         1 I9Q      -0.506100
     23 O4         -11.0360   -61.3440    45.4950 o          1 I9Q      -0.572100
     24 O7          -7.4630   -58.5730    39.6710 o          1 I9Q      -0.550500
     25 H2         -11.2410   -59.7550    39.9250 ha         1 I9Q       0.175000
     26 H3         -13.3930   -61.5460    46.4590 ha         1 I9Q       0.134000
     27 H4         -15.8630   -61.4480    46.3740 ha         1 I9Q       0.116000
     28 H5         -17.0200   -60.8150    44.2610 ha         1 I9Q       0.117000
     29 H7          -7.0930   -61.1170    40.1340 hn         1 I9Q       0.494000
     30 H1          -9.3770   -61.2750    45.0470 ho         1 I9Q       0.522000
     31 H6         -15.7070   -60.2810    42.2350 ha         1 I9Q       0.142000
     32 H8          -6.2650   -62.0140    37.7750 h1         1 I9Q       0.058700
     33 H9          -6.5460   -60.3090    37.4060 h1         1 I9Q       0.058700
     34 H10         -5.1240   -59.6690    39.3230 hc         1 I9Q       0.029700
     35 H11         -4.9140   -61.4540    39.7180 hc         1 I9Q       0.029700
     36 H           -7.0880   -60.7670    43.0310 ho         1 I9Q       0.498000
     37 O3         -13.5520   -59.9630    40.8900 o          1 I9Q      -0.502100
     38 N           -7.4750   -61.0350    39.1900 n7         1 I9Q      -0.932300
     39 O           -9.3170   -59.6190    38.2370 o          1 I9Q      -0.550500
@<TRIPOS>BOND
     1     1     2 ar  
     2     1     4 ar  
     3     1    16 1   
     4     2     3 ar  
     5     2    22 1   
     6     3     6 ar  
     7     3    12 1   
     8     4     5 ar  
     9     4    25 1   
    10     5     6 ar  
    11     5    21 1   
    12     6     7 1   
    13     7     8 1   
    14     7    23 2   
    15     8     9 ar  
    16     8    13 ar  
    17     9    10 ar  
    18     9    26 1   
    19    10    11 ar  
    20    10    27 1   
    21    11    15 ar  
    22    11    28 1   
    23    12    30 1   
    24    13    15 ar  
    25    13    21 1   
    26    14    18 1   
    27    15    31 1   
    28    16    24 2   
    29    16    38 1   
    30    16    39 2   
    31    17    18 1   
    32    18    20 1   
    33    19    20 1   
    34    19    32 1   
    35    19    33 1   
    36    19    38 1   
    37    20    34 1   
    38    20    35 1   
    39    21    37 2   
    40    22    36 1   
    41    29    38 1   
@<TRIPOS>SUBSTRUCTURE
     1 I9Q         1 TEMP              0 ****  ****    0 ROOT
