@<TRIPOS>MOLECULE
I9Q
   39    41     1     0     0
SMALL
bcc


@<TRIPOS>ATOM
      1 C           -8.6540   -59.6580    41.7140 ca         1 I9Q      -0.266500
      2 C1          -8.2760   -60.1120    42.9680 ca         1 I9Q       0.230100
      3 C2          -9.2710   -60.5960    43.8480 ca         1 I9Q       0.094100
      4 C3          -9.9870   -59.6630    41.3180 ca         1 I9Q       0.020000
      5 C4         -10.9610   -60.1310    42.1750 ca         1 I9Q      -0.166600
      6 C5         -10.6060   -60.6030    43.4530 ca         1 I9Q      -0.180600
      7 C6         -11.6220   -61.1040    44.3850 c          1 I9Q       0.612300
      8 C7         -13.0300   -61.1110    43.9480 ca         1 I9Q      -0.133600
      9 C8         -14.0080   -61.5910    44.8140 ca         1 I9Q      -0.083000
     10 C9         -15.3360   -61.6030    44.4200 ca         1 I9Q      -0.128000
     11 C10        -15.6940   -61.1340    43.1620 ca         1 I9Q      -0.113000
     12 O2          -8.8320   -61.0200    45.0280 oh         1 I9Q      -0.533100
     13 C12        -13.3890   -60.6410    42.6800 ca         1 I9Q      -0.114600
     14 O5          -6.9370   -62.7750    36.9610 o          1 I9Q      -0.838300
     15 C11        -14.7250   -60.6550    42.2950 ca         1 I9Q      -0.090000
     16 S           -7.4210   -59.0180    40.5980 sy         1 I9Q       1.328200
     17 O6          -5.7510   -61.4140    35.6490 o          1 I9Q      -0.838300
     18 C16         -6.2670   -61.7480    36.7330 c          1 I9Q       0.939600
     19 C14         -6.6780   -61.2180    39.2200 c3         1 I9Q       0.241800
     20 C15         -6.0490   -60.7740    37.9100 c3         1 I9Q      -0.244400
     21 C13        -12.3690   -60.1290    41.7310 c          1 I9Q       0.592300
     22 O1          -7.0010   -60.1020    43.3320 oh         1 I9Q      -0.467100
     23 O4         -11.3060   -61.5060    45.4990 o          1 I9Q      -0.572100
     24 O7          -6.6540   -58.0080    41.3030 o          1 I9Q      -0.621300
     25 H2         -10.2610   -59.3010    40.3380 ha         1 I9Q       0.193000
     26 H3         -13.7320   -61.9560    45.7930 ha         1 I9Q       0.152000
     27 H4         -16.0940   -61.9770    45.0950 ha         1 I9Q       0.134000
     28 H5         -16.7320   -61.1420    42.8570 ha         1 I9Q       0.135000
     29 H7          -5.4860   -60.1310    40.6050 hn         1 I9Q       0.438800
     30 H1          -9.6060   -61.3220    45.5550 ho         1 I9Q       0.483000
     31 H6         -15.0060   -60.2900    41.3170 ha         1 I9Q       0.160000
     32 H8          -6.2760   -62.1810    39.5330 h1         1 I9Q       0.058700
     33 H9          -7.7530   -61.3620    39.1140 h1         1 I9Q       0.058700
     34 H10         -6.4370   -59.7920    37.6290 hc         1 I9Q       0.029700
     35 H11         -4.9720   -60.6330    38.0540 hc         1 I9Q       0.029700
     36 H           -6.8880   -60.4600    44.2240 ho         1 I9Q       0.459000
     37 O3         -12.6860   -59.7270    40.6300 o          1 I9Q      -0.502100
     38 N           -6.4470   -60.2930    40.3300 n7         1 I9Q      -0.877100
     39 O           -8.1400   -58.6550    39.3850 o          1 I9Q      -0.621300
@<TRIPOS>BOND
     1     1     2 ar  
     2     1     4 ar  
     3     1    16 1   
     4     2     3 ar  
     5     2    22 1   
     6     3     6 ar  
     7     3    12 1   
     8     4     5 ar  
     9     4    25 1   
    10     5     6 ar  
    11     5    21 1   
    12     6     7 1   
    13     7     8 1   
    14     7    23 2   
    15     8     9 ar  
    16     8    13 ar  
    17     9    10 ar  
    18     9    26 1   
    19    10    11 ar  
    20    10    27 1   
    21    11    15 ar  
    22    11    28 1   
    23    12    30 1   
    24    13    15 ar  
    25    13    21 1   
    26    14    18 1   
    27    15    31 1   
    28    16    24 2   
    29    16    38 1   
    30    16    39 2   
    31    17    18 1   
    32    18    20 1   
    33    19    20 1   
    34    19    32 1   
    35    19    33 1   
    36    19    38 1   
    37    20    34 1   
    38    20    35 1   
    39    21    37 2   
    40    22    36 1   
    41    29    38 1   
@<TRIPOS>SUBSTRUCTURE
     1 I9Q         1 TEMP              0 ****  ****    0 ROOT
