@<TRIPOS>MOLECULE
I9R
   25    27     1     0     0
SMALL
bcc


@<TRIPOS>ATOM
      1 C4          12.8470    84.2670   171.4210 ca         1 I9R      -0.159000
      2 C5          14.2310    84.2300   171.4760 ca         1 I9R       0.124100
      3 C6          14.3670    84.9520   173.7250 c3         1 I9R       0.125700
      4 C7          14.8940    83.8320   170.3150 ca         1 I9R      -0.001200
      5 C8          14.2060    83.4960   169.1600 ca         1 I9R      -0.059100
      6 C9          16.6220    83.2960   168.8700 cc         1 I9R       0.421800
      7 C10         17.4410    83.8520   170.7780 cc         1 I9R       0.411400
      8 N1          17.9110    83.1920   168.7640 nd         1 I9R      -0.323000
      9 N2          18.4200    83.5470   169.9760 nd         1 I9R      -0.357000
     10 C3          12.1490    83.9280   170.2580 ca         1 I9R      -0.176000
     11 N3          16.2620    83.7090   170.1150 na         1 I9R      -0.248800
     12 C1          10.8510    83.2140   167.8280 c3         1 I9R       0.124700
     13 C2          12.8150    83.5370   169.1060 ca         1 I9R       0.153100
     14 O2          15.0030    84.5360   172.5300 os         1 I9R      -0.316900
     15 S1          15.2550    83.0310   167.8330 ss         1 I9R      -0.052200
     16 H1          12.2710    84.5650   172.2870 ha         1 I9R       0.143000
     17 H2          15.1590    85.1510   174.4410 h1         1 I9R       0.046033
     18 H3          13.7850    85.8640   173.5750 h1         1 I9R       0.046033
     19 H4          13.7130    84.1730   174.1260 h1         1 I9R       0.046033
     20 H5          17.5300    84.1710   171.8020 h5         1 I9R       0.079100
     21 H6          11.0690    83.9790   170.2830 ha         1 I9R       0.142000
     22 H7          10.6130    82.9130   166.8120 h1         1 I9R       0.046033
     23 H8          10.3840    82.5140   168.5250 h1         1 I9R       0.046033
     24 H9          10.4500    84.2150   168.0070 h1         1 I9R       0.046033
     25 O1          12.2640    83.1920   167.9330 os         1 I9R      -0.307900
@<TRIPOS>BOND
     1     1     2 ar  
     2     1    10 ar  
     3     1    16 1   
     4     2     4 ar  
     5     2    14 1   
     6     3    14 1   
     7     3    17 1   
     8     3    18 1   
     9     3    19 1   
    10     4     5 ar  
    11     4    11 1   
    12     5    13 ar  
    13     5    15 1   
    14     6     8 2   
    15     6    11 1   
    16     6    15 1   
    17     7     9 2   
    18     7    11 1   
    19     7    20 1   
    20     8     9 1   
    21    10    13 ar  
    22    10    21 1   
    23    12    22 1   
    24    12    23 1   
    25    12    24 1   
    26    12    25 1   
    27    13    25 1   
@<TRIPOS>SUBSTRUCTURE
     1 I9R         1 TEMP              0 ****  ****    0 ROOT
