@<TRIPOS>MOLECULE
I9R
   25    27     1     0     0
SMALL
No Charge or Current Charge


@<TRIPOS>ATOM
      1 C4          12.8830    84.2660   171.4300 ca         1 I9R      -0.141000
      2 C5          14.2970    84.3350   171.4270 ca         1 I9R       0.124100
      3 C6          14.4010    85.0480   173.7900 c3         1 I9R       0.148900
      4 C7          14.9710    84.0210   170.2300 ca         1 I9R      -0.001200
      5 C8          14.2780    83.6600   169.0740 ca         1 I9R      -0.186000
      6 C9          16.6880    83.6420   168.7580 cc         1 I9R       0.421800
      7 C10         17.3290    83.6320   170.8450 cc         1 I9R       0.411400
      8 N1          17.8650    83.0450   168.7770 nd         1 I9R      -0.323000
      9 N2          18.3060    83.1110   170.0960 nd         1 I9R      -0.357000
     10 C3          12.1800    83.8950   170.2600 ca         1 I9R      -0.158000
     11 N3          16.3310    84.0390   169.9980 na         1 I9R      -0.248800
     12 C1          10.8080    83.1150   167.8100 c3         1 I9R       0.147900
     13 C2          12.8770    83.5870   169.0680 ca         1 I9R       0.153100
     14 O2          15.0270    84.7070   172.5410 os         1 I9R      -0.340100
     15 S1          15.3430    83.2770   167.6710 ss         1 I9R       0.074700
     16 H1          12.3120    84.4980   172.3250 ha         1 I9R       0.125000
     17 H2          15.1610    85.3110   174.5360 h1         1 I9R       0.046033
     18 H3          13.7310    85.9090   173.6690 h1         1 I9R       0.046033
     19 H4          13.8210    84.2020   174.1800 h1         1 I9R       0.046033
     20 H5          17.2980    83.7260   171.9230 h5         1 I9R       0.079100
     21 H6          11.0950    83.8530   170.3000 ha         1 I9R       0.124000
     22 H7          10.5130    82.8070   166.7990 h1         1 I9R       0.046033
     23 H8          10.4230    82.3710   168.5180 h1         1 I9R       0.046033
     24 H9          10.3350    84.0820   168.0210 h1         1 I9R       0.046033
     25 O1          12.2400    83.2160   167.9010 os         1 I9R      -0.331100
@<TRIPOS>BOND
     1     1     2 ar  
     2     1    10 ar  
     3     1    16 1   
     4     2     4 ar  
     5     2    14 1   
     6     3    14 1   
     7     3    17 1   
     8     3    18 1   
     9     3    19 1   
    10     4     5 ar  
    11     4    11 1   
    12     5    13 ar  
    13     5    15 1   
    14     6     8 2   
    15     6    11 1   
    16     6    15 1   
    17     7     9 2   
    18     7    11 1   
    19     7    20 1   
    20     8     9 1   
    21    10    13 ar  
    22    10    21 1   
    23    12    22 1   
    24    12    23 1   
    25    12    24 1   
    26    12    25 1   
    27    13    25 1   
@<TRIPOS>SUBSTRUCTURE
     1 I9R         1 TEMP              0 ****  ****    0 ROOT
