@<TRIPOS>MOLECULE
I9U
   48    51     1     0     0
SMALL
No Charge or Current Charge


@<TRIPOS>ATOM
      1 C10          5.2890    14.2150    27.3470 ca         1 I9U       0.224000
      2 C13          4.1250    14.7380    29.5670 c3         1 I9U      -0.101100
      3 C17          3.9450    11.1220    30.6890 cc         1 I9U       0.403900
      4 C20          4.2750     9.0560    31.3090 cd         1 I9U       0.201300
      5 C21          4.9210     7.7500    31.6930 c6         1 I9U      -0.118700
      6 C22          6.4260     7.9830    32.0230 c6         1 I9U      -0.074400
      7 C24          6.4430    10.3400    30.9520 c6         1 I9U       0.008900
      8 C26          3.2950    15.5910    27.2900 ca         1 I9U       0.224000
      9 C28          3.4020    15.6880    25.8950 ca         1 I9U      -0.171000
     10 C02          4.4260    14.8620    21.7740 cc         1 I9U       0.270300
     11 C03          5.2170    16.0130    21.9720 cc         1 I9U      -0.225000
     12 C04          5.3150    16.2130    23.3160 cd         1 I9U      -0.116300
     13 C05          6.0330    17.2830    24.1010 c3         1 I9U      -0.031800
     14 N06          4.5650    15.1500    23.8310 na         1 I9U       0.202000
     15 N07          4.0060    14.3020    22.8920 nd         1 I9U      -0.506800
     16 C08          4.4560    15.0500    25.2190 ca         1 I9U       0.085800
     17 C09          5.3980    14.3100    25.9530 ca         1 I9U      -0.171000
     18 F11          6.2070    13.4890    28.0250 f          1 I9U      -0.166000
     19 C12          4.2410    14.8570    28.0390 ca         1 I9U      -0.169300
     20 C14          3.4110    13.4370    29.9580 c          1 I9U       0.608100
     21 O15          2.1930    13.3340    29.9180 o          1 I9U      -0.520100
     22 N16          4.2560    12.4100    30.3160 ns         1 I9U      -0.483400
     23 N18          2.7190    10.6370    30.8180 nd         1 I9U      -0.361300
     24 O19          2.9260     9.2640    31.2280 os         1 I9U      -0.064700
     25 C23          7.1080     8.9330    30.9920 c6         1 I9U      -0.075400
     26 C25          4.9430    10.1790    30.9780 cc         1 I9U      -0.259300
     27 F27          2.2660    16.2120    27.9080 f          1 I9U      -0.166000
     28 H1           5.1300    14.7530    30.0040 hc         1 I9U       0.077700
     29 H2           3.5560    15.5810    29.9750 hc         1 I9U       0.077700
     30 H3           4.4090     7.2990    32.5530 hc         1 I9U       0.070700
     31 H4           4.8310     7.0380    30.8620 hc         1 I9U       0.070700
     32 H5           6.5160     8.4190    33.0280 hc         1 I9U       0.048700
     33 H6           6.9530     7.0200    32.0560 hc         1 I9U       0.048700
     34 H7           6.7760    10.8830    30.0560 hc         1 I9U       0.045700
     35 H8           6.7750    10.9270    31.8190 hc         1 I9U       0.045700
     36 H9           2.6630    16.2590    25.3390 ha         1 I9U       0.155000
     37 H10          3.4690    13.4410    20.4630 hc         1 I9U       0.050033
     38 H11          3.5700    15.0900    19.8180 hc         1 I9U       0.050033
     39 H12          5.0190    14.0670    19.8690 hc         1 I9U       0.050033
     40 H13          5.6560    16.6140    21.1830 ha         1 I9U       0.146000
     41 H14          5.3330    17.8560    24.7200 hc         1 I9U       0.053033
     42 H15          6.7910    16.8480    24.7620 hc         1 I9U       0.053033
     43 H16          6.5410    17.9890    23.4320 hc         1 I9U       0.053033
     44 H17          6.2150    13.8070    25.4420 ha         1 I9U       0.155000
     45 H18          5.2380    12.6410    30.2740 hn         1 I9U       0.326500
     46 H19          7.0530     8.4770    29.9930 hc         1 I9U       0.047200
     47 H20          8.1770     9.0360    31.2240 hc         1 I9U       0.047200
     48 C01          4.1020    14.3350    20.4070 c3         1 I9U      -0.122400
@<TRIPOS>BOND
     1     1    17 ar  
     2     1    18 1   
     3     1    19 ar  
     4     2    19 1   
     5     2    20 1   
     6     2    28 1   
     7     2    29 1   
     8     3    22 1   
     9     3    23 2   
    10     3    26 1   
    11     4     5 1   
    12     4    24 1   
    13     4    26 2   
    14     5     6 1   
    15     5    30 1   
    16     5    31 1   
    17     6    25 1   
    18     6    32 1   
    19     6    33 1   
    20     7    25 1   
    21     7    26 1   
    22     7    34 1   
    23     7    35 1   
    24     8     9 ar  
    25     8    19 ar  
    26     8    27 1   
    27     9    16 ar  
    28     9    36 1   
    29    10    11 1   
    30    10    15 2   
    31    10    48 1   
    32    11    12 2   
    33    11    40 1   
    34    12    13 1   
    35    12    14 1   
    36    13    41 1   
    37    13    42 1   
    38    13    43 1   
    39    14    15 1   
    40    14    16 1   
    41    16    17 ar  
    42    17    44 1   
    43    20    21 2   
    44    20    22 1   
    45    22    45 1   
    46    23    24 1   
    47    25    46 1   
    48    25    47 1   
    49    37    48 1   
    50    38    48 1   
    51    39    48 1   
@<TRIPOS>SUBSTRUCTURE
     1 I9U         1 TEMP              0 ****  ****    0 ROOT
