@<TRIPOS>MOLECULE
I9U
   48    51     1     0     0
SMALL
abcg2


@<TRIPOS>ATOM
      1 C10          5.4060    14.3430    26.9170 ca         1 I9U       0.224000
      2 C13          4.1650    14.2570    29.1030 c3         1 I9U      -0.101100
      3 C17          4.1640    10.7960    30.5640 cc         1 I9U       0.403900
      4 C20          4.4520     8.8380    31.4410 cd         1 I9U       0.201300
      5 C21          4.9590     7.6250    32.1250 c6         1 I9U      -0.118700
      6 C22          6.1780     8.0300    32.9640 c6         1 I9U      -0.074400
      7 C24          6.4570    10.2910    31.8460 c6         1 I9U       0.008900
      8 C26          3.2360    15.2280    26.9490 ca         1 I9U       0.224000
      9 C28          3.3170    15.5620    25.6130 ca         1 I9U      -0.171000
     10 C02          3.9160    15.7430    21.5640 cc         1 I9U       0.270300
     11 C03          5.2010    16.3240    21.6120 cc         1 I9U      -0.225000
     12 C04          5.6090    16.2130    22.9170 cd         1 I9U      -0.116300
     13 C05          6.8560    16.7000    23.5660 c3         1 I9U      -0.031800
     14 N06          4.5900    15.5880    23.5670 na         1 I9U       0.202000
     15 N07          3.5560    15.3110    22.7530 nd         1 I9U      -0.506800
     16 C08          4.4910    15.2660    24.9300 ca         1 I9U       0.085800
     17 C09          5.5490    14.6410    25.5780 ca         1 I9U      -0.171000
     18 F11          6.4150    13.7230    27.5400 f          1 I9U      -0.166000
     19 C12          4.2670    14.6250    27.6550 ca         1 I9U      -0.169300
     20 C14          3.6860    12.8230    29.2630 c          1 I9U       0.608100
     21 O15          2.7570    12.3790    28.6270 o          1 I9U      -0.520100
     22 N16          4.3820    12.1080    30.1910 ns         1 I9U      -0.483400
     23 N18          3.0800    10.1250    30.2800 nd         1 I9U      -0.361300
     24 O19          3.2660     8.8840    30.8370 os         1 I9U      -0.064700
     25 C23          7.1220     8.9570    32.1980 c6         1 I9U      -0.075400
     26 C25          5.0910    10.0200    31.3110 cc         1 I9U      -0.259300
     27 F27          2.1090    15.5240    27.6050 f          1 I9U      -0.166000
     28 H1           5.1150    14.4290    29.6080 hc         1 I9U       0.077700
     29 H2           3.4360    14.8940    29.6090 hc         1 I9U       0.077700
     30 H3           4.1860     7.1760    32.7530 hc         1 I9U       0.070700
     31 H4           5.2370     6.8710    31.3820 hc         1 I9U       0.070700
     32 H5           5.8370     8.5320    33.8740 hc         1 I9U       0.048700
     33 H6           6.7090     7.1320    33.2810 hc         1 I9U       0.048700
     34 H7           7.0620    10.8340    31.1160 hc         1 I9U       0.045700
     35 H8           6.3990    10.9280    32.7340 hc         1 I9U       0.045700
     36 H9           2.4880    16.0460    25.1160 ha         1 I9U       0.155000
     37 H10          2.0860    15.1160    20.6570 hc         1 I9U       0.050033
     38 H11          2.8030    16.5540    19.9260 hc         1 I9U       0.050033
     39 H12          3.5000    14.9750    19.6110 hc         1 I9U       0.050033
     40 H13          5.7510    16.7770    20.8030 ha         1 I9U       0.146000
     41 H14          6.6590    17.1610    24.5340 hc         1 I9U       0.053033
     42 H15          7.5810    15.9000    23.7220 hc         1 I9U       0.053033
     43 H16          7.3250    17.4440    22.9260 hc         1 I9U       0.053033
     44 H17          6.4520    14.3590    25.0550 ha         1 I9U       0.155000
     45 H18          5.1830    12.5510    30.6130 hn         1 I9U       0.326500
     46 H19          7.4470     8.4620    31.2790 hc         1 I9U       0.047200
     47 H20          8.0200     9.1430    32.7900 hc         1 I9U       0.047200
     48 C01          3.0270    15.5880    20.3790 c3         1 I9U      -0.122400
@<TRIPOS>BOND
     1     1    17 ar  
     2     1    18 1   
     3     1    19 ar  
     4     2    19 1   
     5     2    20 1   
     6     2    28 1   
     7     2    29 1   
     8     3    22 1   
     9     3    23 2   
    10     3    26 1   
    11     4     5 1   
    12     4    24 1   
    13     4    26 2   
    14     5     6 1   
    15     5    30 1   
    16     5    31 1   
    17     6    25 1   
    18     6    32 1   
    19     6    33 1   
    20     7    25 1   
    21     7    26 1   
    22     7    34 1   
    23     7    35 1   
    24     8     9 ar  
    25     8    19 ar  
    26     8    27 1   
    27     9    16 ar  
    28     9    36 1   
    29    10    11 1   
    30    10    15 2   
    31    10    48 1   
    32    11    12 2   
    33    11    40 1   
    34    12    13 1   
    35    12    14 1   
    36    13    41 1   
    37    13    42 1   
    38    13    43 1   
    39    14    15 1   
    40    14    16 1   
    41    16    17 ar  
    42    17    44 1   
    43    20    21 2   
    44    20    22 1   
    45    22    45 1   
    46    23    24 1   
    47    25    46 1   
    48    25    47 1   
    49    37    48 1   
    50    38    48 1   
    51    39    48 1   
@<TRIPOS>SUBSTRUCTURE
     1 I9U         1 TEMP              0 ****  ****    0 ROOT
