@<TRIPOS>MOLECULE
I9V
   40    41     1     0     0
SMALL
abcg2


@<TRIPOS>ATOM
      1 C13         39.1250    31.7230    60.4850 ca         1 I9V      -0.140000
      2 C15         37.0850    32.8510    61.1980 ca         1 I9V      -0.137000
      3 C17         37.5560    30.5000    61.8690 ca         1 I9V       0.018000
      4 C20         39.9430    30.5350    60.5100 ca         1 I9V       0.672900
      5 C22         42.0280    29.5020    59.5480 c2         1 I9V       0.839100
      6 C1          39.1750    36.6680    61.7910 c3         1 I9V      -0.085100
      7 C2          40.1700    37.1240    60.7260 c3         1 I9V       0.094200
      8 C3          39.8020    38.5130    60.2090 c3         1 I9V      -0.085100
      9 C4          41.5990    37.1540    61.3740 c          1 I9V       0.725000
     10 C11         38.6480    33.9750    59.7730 ca         1 I9V      -0.275500
     11 C12         39.4660    32.8760    59.7570 ca         1 I9V       0.022000
     12 C14         37.9030    31.7030    61.2030 ca         1 I9V       0.054000
     13 C16         37.4470    33.9690    60.4970 ca         1 I9V       0.010000
     14 C18         38.3890    29.4270    61.7910 ca         1 I9V       0.395900
     15 N7          40.2960    36.1910    59.6010 n7         1 I9V      -0.899300
     16 N19         39.5620    29.4530    61.1370 nb         1 I9V      -0.791000
     17 N21         41.1560    30.5480    59.8760 nu         1 I9V      -0.938100
     18 N23         43.1770    29.7170    59.0310 n2         1 I9V      -0.907100
     19 N24         41.5670    28.2400    59.7360 nv         1 I9V      -1.042200
     20 O5          42.4320    36.3370    60.9280 o          1 I9V      -0.706500
     21 O6          41.7590    37.9800    62.2820 o          1 I9V      -0.706500
     22 O9          39.7350    34.8720    57.6050 o          1 I9V      -0.567500
     23 O10         37.9550    36.2600    58.7180 o          1 I9V      -0.567500
     24 S8          39.1280    35.4050    58.8160 sy         1 I9V       1.170600
     25 CL1         36.0830    30.3730    62.7590 cl         1 I9V      -0.199000
     26 H1          36.1520    32.8480    61.7430 ha         1 I9V       0.125000
     27 H2          39.4080    35.6680    62.1610 hc         1 I9V       0.033367
     28 H3          39.2060    37.3540    62.6360 hc         1 I9V       0.033367
     29 H4          38.1510    36.6670    61.4160 hc         1 I9V       0.033367
     30 H5          39.7860    39.2330    61.0250 hc         1 I9V       0.033367
     31 H6          40.5210    38.8570    59.4640 hc         1 I9V       0.033367
     32 H7          38.8150    38.5060    59.7470 hc         1 I9V       0.033367
     33 H8          40.3660    32.9070    59.1580 ha         1 I9V       0.129000
     34 H9          36.8000    34.8350    60.4940 ha         1 I9V       0.143000
     35 H10         38.1360    28.4930    62.2770 h4         1 I9V       0.023100
     36 H11         41.2060    35.7210    59.6440 hn         1 I9V       0.537000
     37 H12         41.5160    31.4500    59.6090 hn         1 I9V       0.509000
     38 H13         43.3570    30.7040    58.8920 hn         1 I9V       0.394400
     39 H14         40.8480    28.1010    60.4300 hn         1 I9V       0.493000
     40 H15         42.2670    27.5220    59.6610 hn         1 I9V       0.493000
@<TRIPOS>BOND
     1     1     4 ar  
     2     1    11 ar  
     3     1    12 ar  
     4     2    12 ar  
     5     2    13 ar  
     6     2    26 1   
     7     3    12 ar  
     8     3    14 ar  
     9     3    25 1   
    10     4    16 ar  
    11     4    17 1   
    12     5    17 1   
    13     5    18 2   
    14     5    19 1   
    15     6     7 1   
    16     6    27 1   
    17     6    28 1   
    18     6    29 1   
    19     7     8 1   
    20     7     9 1   
    21     7    15 1   
    22     8    30 1   
    23     8    31 1   
    24     8    32 1   
    25     9    20 1   
    26     9    21 1   
    27    10    11 ar  
    28    10    13 ar  
    29    10    24 1   
    30    11    33 1   
    31    13    34 1   
    32    14    16 ar  
    33    14    35 1   
    34    15    24 1   
    35    15    36 1   
    36    17    37 1   
    37    18    38 1   
    38    19    39 1   
    39    19    40 1   
    40    22    24 2   
    41    23    24 2   
@<TRIPOS>SUBSTRUCTURE
     1 I9V         1 TEMP              0 ****  ****    0 ROOT
