@<TRIPOS>MOLECULE
I9V
   40    41     1     0     0
SMALL
No Charge or Current Charge


@<TRIPOS>ATOM
      1 C13         38.8170    31.3770    60.6710 ca         1 I9V      -0.140000
      2 C15         37.0750    32.1150    62.2220 ca         1 I9V      -0.137000
      3 C17         37.7780    29.7500    62.1400 ca         1 I9V       0.018000
      4 C20         39.6070    30.3180    60.1600 ca         1 I9V       0.672900
      5 C22         41.6720    29.9310    58.9000 c2         1 I9V       0.839100
      6 C1          39.5580    38.3000    60.2120 c3         1 I9V      -0.085100
      7 C2          40.4810    37.1210    60.6330 c3         1 I9V       0.094200
      8 C3          41.4750    36.7880    59.4830 c3         1 I9V      -0.085100
      9 C4          41.2660    37.6030    61.9380 c          1 I9V       0.725000
     10 C11         38.1310    33.7270    60.7390 ca         1 I9V      -0.275500
     11 C12         38.9390    32.7070    60.2030 ca         1 I9V       0.022000
     12 C14         37.8780    31.0840    61.6890 ca         1 I9V       0.054000
     13 C16         37.2000    33.4310    61.7510 ca         1 I9V       0.010000
     14 C18         38.6140    28.7800    61.5580 ca         1 I9V       0.395900
     15 N7          39.6940    35.8650    60.9420 n7         1 I9V      -0.899300
     16 N19         39.5140    29.0500    60.5850 nb         1 I9V      -0.791000
     17 N21         40.5290    30.4890    59.1590 nu         1 I9V      -0.938100
     18 N23         42.2700    29.2420    59.7330 n2         1 I9V      -0.907100
     19 N24         42.2450    30.8290    58.1610 nv         1 I9V      -1.042200
     20 O5          40.7250    37.4120    63.0230 o          1 I9V      -0.706500
     21 O6          42.4070    38.0410    61.8400 o          1 I9V      -0.706500
     22 O9          38.6460    35.3570    58.7070 o          1 I9V      -0.567500
     23 O10         37.2330    36.2550    60.6580 o          1 I9V      -0.567500
     24 S8          38.3040    35.4080    60.1310 sy         1 I9V       1.170600
     25 Cl1         36.6410    29.2620    63.4060 cl         1 I9V      -0.199000
     26 H1          36.3490    31.9110    63.0040 ha         1 I9V       0.125000
     27 H2          38.8070    38.5100    60.9830 hc         1 I9V       0.033367
     28 H3          40.1510    39.2120    60.0750 hc         1 I9V       0.033367
     29 H4          39.0450    38.1040    59.2630 hc         1 I9V       0.033367
     30 H5          42.0930    37.6600    59.2340 hc         1 I9V       0.033367
     31 H6          42.1440    35.9700    59.7740 hc         1 I9V       0.033367
     32 H7          40.9540    36.4920    58.5670 hc         1 I9V       0.033367
     33 H8          39.6610    32.9630    59.4300 ha         1 I9V       0.129000
     34 H9          36.5700    34.2110    62.1760 ha         1 I9V       0.143000
     35 H10         38.5600    27.7420    61.8840 h4         1 I9V       0.023100
     36 H11         39.3080    35.9800    61.8800 hn         1 I9V       0.537000
     37 H12         40.5470    31.4080    58.7610 hn         1 I9V       0.509000
     38 H13         41.5070    28.9220    60.3480 hn         1 I9V       0.394400
     39 H14         42.0910    30.6150    57.1840 hn         1 I9V       0.493000
     40 H15         43.2340    30.8220    58.3720 hn         1 I9V       0.493000
@<TRIPOS>BOND
     1     1     4 ar  
     2     1    11 ar  
     3     1    12 ar  
     4     2    12 ar  
     5     2    13 ar  
     6     2    26 1   
     7     3    12 ar  
     8     3    14 ar  
     9     3    25 1   
    10     4    16 ar  
    11     4    17 1   
    12     5    17 1   
    13     5    18 2   
    14     5    19 1   
    15     6     7 1   
    16     6    27 1   
    17     6    28 1   
    18     6    29 1   
    19     7     8 1   
    20     7     9 1   
    21     7    15 1   
    22     8    30 1   
    23     8    31 1   
    24     8    32 1   
    25     9    20 1   
    26     9    21 1   
    27    10    11 ar  
    28    10    13 ar  
    29    10    24 1   
    30    11    33 1   
    31    13    34 1   
    32    14    16 ar  
    33    14    35 1   
    34    15    24 1   
    35    15    36 1   
    36    17    37 1   
    37    18    38 1   
    38    19    39 1   
    39    19    40 1   
    40    22    24 2   
    41    23    24 2   
@<TRIPOS>SUBSTRUCTURE
     1 I9V         1 TEMP              0 ****  ****    0 ROOT
