@<TRIPOS>MOLECULE
I9W
   54    56     1     0     0
SMALL
No Charge or Current Charge


@<TRIPOS>ATOM
      1 C10          9.2700    25.8010     8.1390 ca         1 I9W      -0.252000
      2 C9           8.0440    25.5760     7.4990 ca         1 I9W       0.172100
      3 C4           9.3730    22.8760     5.8180 ca         1 I9W      -0.051000
      4 C5           8.9720    24.2170     5.7300 ca         1 I9W       0.002100
      5 C6           9.6670    25.0830     4.8450 ca         1 I9W       0.397300
      6 C3          10.4620    22.4520     5.0380 ca         1 I9W      -0.172000
      7 C2          11.1030    23.3860     4.2000 ca         1 I9W       0.501900
      8 C11          9.3290    26.7580     9.1590 ca         1 I9W       0.374900
      9 C13          7.0700    27.2520     8.9430 ca         1 I9W       0.485500
     10 C14          6.9290    26.3080     7.9120 ca         1 I9W      -0.194000
     11 O31         15.1430    20.2670     2.3830 o          1 I9W      -0.512100
     12 C22         14.9240    21.3400     1.8380 c          1 I9W       0.620100
     13 C26         15.7190    21.7820     0.5630 c3         1 I9W      -0.128000
     14 C27         17.2230    21.9040     0.9360 c3         1 I9W      -0.084433
     15 C28         15.2430    23.1500    -0.0170 c3         1 I9W      -0.084433
     16 C29         15.5440    20.6970    -0.5360 c3         1 I9W      -0.084433
     17 N23         13.9500    22.2010     2.2840 ns         1 I9W      -0.493500
     18 C24         13.0000    22.0320     3.2490 c          1 I9W       0.673100
     19 O25         12.8890    21.0270     3.9290 o          1 I9W      -0.554100
     20 N20         12.1930    23.1330     3.3620 ns         1 I9W      -0.340900
     21 C30          9.2730    26.5410     4.6680 c3         1 I9W      -0.150400
     22 N7          10.7170    24.6720     4.0950 nb         1 I9W      -0.748000
     23 O8           7.9060    24.6500     6.4890 os         1 I9W      -0.236200
     24 N12          8.2560    27.4730     9.5560 nb         1 I9W      -0.707000
     25 C15          5.9200    28.0370     9.3920 cc         1 I9W      -0.286500
     26 C16          4.5910    28.0240     8.9480 cc         1 I9W       0.264900
     27 N17          3.8130    28.8750     9.5860 nd         1 I9W      -0.529800
     28 N18          4.6890    29.4690    10.4890 na         1 I9W       0.130800
     29 C19          4.2220    30.5050    11.4200 c3         1 I9W       0.071900
     30 C20          5.9920    28.9690    10.3880 cd         1 I9W      -0.112000
     31 H1          10.1650    25.2500     7.8680 ha         1 I9W       0.134000
     32 H2           8.8540    22.1830     6.4780 ha         1 I9W       0.139000
     33 H3          10.7860    21.4190     5.0870 ha         1 I9W       0.165000
     34 H4          10.2660    26.9590     9.6780 h4         1 I9W       0.016100
     35 H5           5.9700    26.1470     7.4350 ha         1 I9W       0.138000
     36 H6          17.6180    20.9480     1.3020 hc         1 I9W       0.043589
     37 H7          17.8210    22.2030     0.0670 hc         1 I9W       0.043589
     38 H8          17.3700    22.6540     1.7230 hc         1 I9W       0.043589
     39 H9          15.3790    23.9630     0.7070 hc         1 I9W       0.043589
     40 H10         15.8220    23.4130    -0.9120 hc         1 I9W       0.043589
     41 H11         14.1860    23.1140    -0.3120 hc         1 I9W       0.043589
     42 H12         15.9190    19.7240    -0.1970 hc         1 I9W       0.043589
     43 H13         14.4860    20.5780    -0.8010 hc         1 I9W       0.043589
     44 H14         16.0930    20.9670    -1.4470 hc         1 I9W       0.043589
     45 H15         13.8940    23.0720     1.7840 hn         1 I9W       0.315500
     46 H16         12.4150    23.9060     2.7530 hn         1 I9W       0.164000
     47 H17          9.6580    26.9540     3.7280 hc         1 I9W       0.060033
     48 H18          8.1830    26.6560     4.6530 hc         1 I9W       0.060033
     49 H19          9.6670    27.1520     5.4870 hc         1 I9W       0.060033
     50 H20          4.1590    27.4100     8.1680 h4         1 I9W       0.039100
     51 H21          3.8290    31.3570    10.8520 h1         1 I9W       0.057700
     52 H22          3.4310    30.0940    12.0580 h1         1 I9W       0.057700
     53 H23          5.0550    30.8420    12.0480 h1         1 I9W       0.057700
     54 H24          6.8160    29.3080    11.0080 h4         1 I9W       0.168000
@<TRIPOS>BOND
     1     1     2 ar  
     2     1     8 ar  
     3     1    31 1   
     4     2    10 ar  
     5     2    23 1   
     6     3     4 ar  
     7     3     6 ar  
     8     3    32 1   
     9     4     5 ar  
    10     4    23 1   
    11     5    21 1   
    12     5    22 ar  
    13     6     7 ar  
    14     6    33 1   
    15     7    20 1   
    16     7    22 ar  
    17     8    24 ar  
    18     8    34 1   
    19     9    10 ar  
    20     9    24 ar  
    21     9    25 1   
    22    10    35 1   
    23    11    12 2   
    24    12    13 1   
    25    12    17 1   
    26    13    14 1   
    27    13    15 1   
    28    13    16 1   
    29    14    36 1   
    30    14    37 1   
    31    14    38 1   
    32    15    39 1   
    33    15    40 1   
    34    15    41 1   
    35    16    42 1   
    36    16    43 1   
    37    16    44 1   
    38    17    18 1   
    39    17    45 1   
    40    18    19 2   
    41    18    20 1   
    42    20    46 1   
    43    21    47 1   
    44    21    48 1   
    45    21    49 1   
    46    25    26 1   
    47    25    30 2   
    48    26    27 2   
    49    26    50 1   
    50    27    28 1   
    51    28    29 1   
    52    28    30 1   
    53    29    51 1   
    54    29    52 1   
    55    29    53 1   
    56    30    54 1   
@<TRIPOS>SUBSTRUCTURE
     1 I9W         1 TEMP              0 ****  ****    0 ROOT
