@<TRIPOS>MOLECULE
I9W
   54    56     1     0     0
SMALL
bcc


@<TRIPOS>ATOM
      1 C10          9.2620    25.8070     7.8580 ca         1 I9W      -0.335300
      2 C9           8.0380    25.7940     7.2000 ca         1 I9W       0.172100
      3 C4           9.1910    23.2770     5.4420 ca         1 I9W      -0.069000
      4 C5           8.8770    24.6180     5.3480 ca         1 I9W      -0.063200
      5 C6           9.6200    25.4390     4.5030 ca         1 I9W       0.462600
      6 C3          10.2410    22.7640     4.7000 ca         1 I9W      -0.255300
      7 C2          10.9410    23.6530     3.8860 ca         1 I9W       0.567200
      8 C11          9.3350    26.5330     9.0370 ca         1 I9W       0.440200
      9 C13          7.1550    27.1880     8.9310 ca         1 I9W       0.550800
     10 C14          6.9670    26.4900     7.7430 ca         1 I9W      -0.277300
     11 O31         14.5110    20.0550     2.1840 o          1 I9W      -0.512100
     12 C22         14.5940    21.1700     1.7290 c          1 I9W       0.687100
     13 C26         15.6830    21.5920     0.7370 c3         1 I9W      -0.128000
     14 C27         16.5840    22.6470     1.3960 c3         1 I9W      -0.084433
     15 C28         15.0530    22.1650    -0.5390 c3         1 I9W      -0.084433
     16 C29         16.5240    20.3710     0.3730 c3         1 I9W      -0.084433
     17 N23         13.7200    22.1880     2.0650 ns         1 I9W      -0.627500
     18 C24         12.6670    22.1190     2.9700 c          1 I9W       0.807100
     19 O25         12.3630    21.1250     3.5870 o          1 I9W      -0.554100
     20 N20         12.0200    23.3200     3.0730 ns         1 I9W      -0.574400
     21 C30          9.3150    26.8970     4.3570 c3         1 I9W      -0.150400
     22 N7          10.6260    24.9400     3.7980 nb         1 I9W      -0.748000
     23 O8           7.8090    25.1320     6.0430 os         1 I9W      -0.236200
     24 N12          8.3300    27.2070     9.5700 nb         1 I9W      -0.707000
     25 C15          6.0710    27.9500     9.5380 cc         1 I9W      -0.351800
     26 C16          4.7350    28.1080     9.1180 cc         1 I9W       0.330200
     27 N17          4.0610    28.8890     9.9380 nd         1 I9W      -0.529800
     28 N18          4.9300    29.2440    10.8830 na         1 I9W       0.109400
     29 C19          4.5170    30.1240    11.9490 c3         1 I9W       0.042600
     30 C20          6.1430    28.7110    10.6910 cd         1 I9W      -0.079300
     31 H1          10.1320    25.2810     7.4910 ha         1 I9W       0.152000
     32 H2           8.6170    22.6260     6.0900 ha         1 I9W       0.157000
     33 H3          10.4940    21.7200     4.7600 ha         1 I9W       0.183000
     34 H4          10.2750    26.5640     9.5780 h4         1 I9W       0.016100
     35 H5           6.0110    26.4880     7.2360 ha         1 I9W       0.156000
     36 H6          17.0280    22.2730     2.3200 hc         1 I9W       0.043589
     37 H7          17.3980    22.9020     0.7150 hc         1 I9W       0.043589
     38 H8          16.0550    23.5720     1.6270 hc         1 I9W       0.043589
     39 H9          14.5190    23.1010    -0.3730 hc         1 I9W       0.043589
     40 H10         15.8420    22.3760    -1.2620 hc         1 I9W       0.043589
     41 H11         14.3620    21.4570    -0.9990 hc         1 I9W       0.043589
     42 H12         17.0170    19.9410     1.2440 hc         1 I9W       0.043589
     43 H13         15.9260    19.5910    -0.0990 hc         1 I9W       0.043589
     44 H14         17.3000    20.6670    -0.3340 hc         1 I9W       0.043589
     45 H15         13.8750    23.0750     1.6120 hn         1 I9W       0.315500
     46 H16         12.3610    24.1120     2.5460 hn         1 I9W       0.330500
     47 H17          9.9140    27.3240     3.5570 hc         1 I9W       0.060033
     48 H18          8.2610    27.0670     4.1330 hc         1 I9W       0.060033
     49 H19          9.5400    27.4440     5.2760 hc         1 I9W       0.060033
     50 H20          4.2450    27.6820     8.2550 h4         1 I9W       0.039100
     51 H21          4.2150    31.0890    11.5480 h1         1 I9W       0.057700
     52 H22          3.6840    29.6880    12.4970 h1         1 I9W       0.057700
     53 H23          5.3510    30.2700    12.6300 h1         1 I9W       0.057700
     54 H24          6.9620    28.9010    11.3650 h4         1 I9W       0.186000
@<TRIPOS>BOND
     1     1     2 ar  
     2     1     8 ar  
     3     1    31 1   
     4     2    10 ar  
     5     2    23 1   
     6     3     4 ar  
     7     3     6 ar  
     8     3    32 1   
     9     4     5 ar  
    10     4    23 1   
    11     5    21 1   
    12     5    22 ar  
    13     6     7 ar  
    14     6    33 1   
    15     7    20 1   
    16     7    22 ar  
    17     8    24 ar  
    18     8    34 1   
    19     9    10 ar  
    20     9    24 ar  
    21     9    25 1   
    22    10    35 1   
    23    11    12 2   
    24    12    13 1   
    25    12    17 1   
    26    13    14 1   
    27    13    15 1   
    28    13    16 1   
    29    14    36 1   
    30    14    37 1   
    31    14    38 1   
    32    15    39 1   
    33    15    40 1   
    34    15    41 1   
    35    16    42 1   
    36    16    43 1   
    37    16    44 1   
    38    17    18 1   
    39    17    45 1   
    40    18    19 2   
    41    18    20 1   
    42    20    46 1   
    43    21    47 1   
    44    21    48 1   
    45    21    49 1   
    46    25    26 1   
    47    25    30 2   
    48    26    27 2   
    49    26    50 1   
    50    27    28 1   
    51    28    29 1   
    52    28    30 1   
    53    29    51 1   
    54    29    52 1   
    55    29    53 1   
    56    30    54 1   
@<TRIPOS>SUBSTRUCTURE
     1 I9W         1 TEMP              0 ****  ****    0 ROOT
