@<TRIPOS>MOLECULE
I9Z
   47    50     1     0     0
SMALL
abcg2


@<TRIPOS>ATOM
      1 C10         89.4340    -9.3790    16.8940 ca         1 I9Z      -0.119500
      2 C11         89.5490    -8.4340    17.9070 ca         1 I9Z      -0.092000
      3 C13         91.4340    -7.4540    16.7740 ca         1 I9Z      -0.072000
      4 C15         91.9220   -13.6650     7.6990 ca         1 I9Z      -0.096000
      5 C16         91.2490   -14.3210     6.6780 ca         1 I9Z      -0.115500
      6 C17         91.9530   -14.9150     5.6390 ca         1 I9Z      -0.112000
      7 C18         93.3410   -14.8490     5.6350 ca         1 I9Z      -0.115500
      8 C19         94.0150   -14.1970     6.6550 ca         1 I9Z      -0.096000
      9 C20         94.0180   -12.8870     8.7770 cc         1 I9Z       0.296500
     10 C21         95.3570   -12.6140     8.8930 cd         1 I9Z      -0.213000
     11 C23         94.2680   -11.8060    10.6130 cd         1 I9Z       0.403800
     12 C25         93.9960   -11.0590    11.8710 c3         1 I9Z      -0.100700
     13 C1          93.3090    -8.8520    12.8410 cc         1 I9Z       0.243300
     14 C2          93.6560    -9.5860    11.5950 c3         1 I9Z      -0.092700
     15 N3          92.2510    -9.2460    13.6330 nc         1 I9Z      -0.676000
     16 C4          92.2370    -8.4200    14.6240 cd         1 I9Z       0.506500
     17 O5          93.2080    -7.5000    14.5520 os         1 I9Z      -0.259000
     18 C6          93.9010    -7.7760    13.4130 cd         1 I9Z       0.109300
     19 C7          91.3220    -8.4020    15.7560 ca         1 I9Z      -0.136500
     20 C8          95.0530    -6.9150    13.0700 c3         1 I9Z      -0.114400
     21 C9          90.3130    -9.3650    15.8250 ca         1 I9Z      -0.072000
     22 C12         90.5500    -7.4740    17.8420 ca         1 I9Z      -0.119500
     23 C14         93.3170   -13.5900     7.7040 ca         1 I9Z      -0.099500
     24 N22         95.5000   -11.9250    10.0610 na         1 I9Z      -0.162500
     25 N24         93.3590   -12.3740     9.8610 nc         1 I9Z      -0.666000
     26 H1          88.6560   -10.1300    16.9380 ha         1 I9Z       0.117000
     27 H2          88.8630    -8.4470    18.7440 ha         1 I9Z       0.115000
     28 H3          92.2090    -6.7000    16.7410 ha         1 I9Z       0.131000
     29 H4          91.3620   -13.2020     8.5010 ha         1 I9Z       0.118000
     30 H5          90.1680   -14.3640     6.6940 ha         1 I9Z       0.109500
     31 H6          91.4270   -15.4240     4.8420 ha         1 I9Z       0.110000
     32 H7          93.9040   -15.3100     4.8330 ha         1 I9Z       0.109500
     33 H8          95.0970   -14.1640     6.6330 ha         1 I9Z       0.118000
     34 H9          96.2010   -12.8380     8.2610 h4         1 I9Z       0.156000
     35 H10         94.8480   -11.1190    12.5510 hc         1 I9Z       0.068700
     36 H11         93.1540   -11.5330    12.3770 hc         1 I9Z       0.068700
     37 H12         96.7100   -10.3380    10.7090 h1         1 I9Z       0.052367
     38 H13         96.9510   -11.8650    11.5740 h1         1 I9Z       0.052367
     39 H14         97.5530   -11.6760     9.9250 h1         1 I9Z       0.052367
     40 H15         92.8120    -9.5450    10.9020 hc         1 I9Z       0.058200
     41 H16         94.4930    -9.0950    11.0950 hc         1 I9Z       0.058200
     42 H17         94.7500    -5.8770    12.9150 hc         1 I9Z       0.055367
     43 H18         95.8120    -6.9260    13.8540 hc         1 I9Z       0.055367
     44 H19         95.5190    -7.2660    12.1510 hc         1 I9Z       0.055367
     45 H20         90.2200   -10.1040    15.0410 ha         1 I9Z       0.131000
     46 H21         90.6470    -6.7360    18.6270 ha         1 I9Z       0.117000
     47 C26         96.7440   -11.4210    10.6030 c3         1 I9Z       0.059900
@<TRIPOS>BOND
     1     1     2 ar  
     2     1    21 ar  
     3     1    26 1   
     4     2    22 ar  
     5     2    27 1   
     6     3    19 ar  
     7     3    22 ar  
     8     3    28 1   
     9     4     5 ar  
    10     4    23 ar  
    11     4    29 1   
    12     5     6 ar  
    13     5    30 1   
    14     6     7 ar  
    15     6    31 1   
    16     7     8 ar  
    17     7    32 1   
    18     8    23 ar  
    19     8    33 1   
    20     9    10 2   
    21     9    23 1   
    22     9    25 1   
    23    10    24 1   
    24    10    34 1   
    25    11    12 1   
    26    11    24 1   
    27    11    25 2   
    28    12    14 1   
    29    12    35 1   
    30    12    36 1   
    31    13    14 1   
    32    13    15 1   
    33    13    18 2   
    34    14    40 1   
    35    14    41 1   
    36    15    16 2   
    37    16    17 1   
    38    16    19 1   
    39    17    18 1   
    40    18    20 1   
    41    19    21 ar  
    42    20    42 1   
    43    20    43 1   
    44    20    44 1   
    45    21    45 1   
    46    22    46 1   
    47    24    47 1   
    48    37    47 1   
    49    38    47 1   
    50    39    47 1   
@<TRIPOS>SUBSTRUCTURE
     1 I9Z         1 TEMP              0 ****  ****    0 ROOT
