@<TRIPOS>MOLECULE
I9Z
   47    50     1     0     0
SMALL
No Charge or Current Charge


@<TRIPOS>ATOM
      1 C10         89.0860    -8.7740    16.9710 ca         1 I9Z      -0.119500
      2 C11         89.4290    -7.9940    18.0870 ca         1 I9Z      -0.092000
      3 C13         91.5940    -7.5140    17.0790 ca         1 I9Z      -0.072000
      4 C15         92.0120   -13.9710     7.6030 ca         1 I9Z      -0.096000
      5 C16         91.4420   -14.7880     6.6110 ca         1 I9Z      -0.115500
      6 C17         92.2390   -15.3010     5.5770 ca         1 I9Z      -0.112000
      7 C18         93.6090   -15.0010     5.5400 ca         1 I9Z      -0.115500
      8 C19         94.1820   -14.1840     6.5310 ca         1 I9Z      -0.096000
      9 C20         93.9730   -12.8080     8.6320 cc         1 I9Z       0.296500
     10 C21         95.2240   -12.2590     8.5300 cd         1 I9Z      -0.213000
     11 C23         94.2100   -11.7050    10.4390 cd         1 I9Z       0.403800
     12 C25         93.9220   -11.0890    11.7850 c3         1 I9Z      -0.100700
     13 C1          93.1610    -9.0030    13.0250 cc         1 I9Z       0.243300
     14 C2          93.3760    -9.6460    11.6810 c3         1 I9Z      -0.092700
     15 N3          92.0030    -9.1670    13.7270 nc         1 I9Z      -0.676000
     16 C4          92.2140    -8.4580    14.8310 cd         1 I9Z       0.506500
     17 O5          93.4300    -7.8330    14.9150 os         1 I9Z      -0.259000
     18 C6          94.0080    -8.2040    13.7440 cd         1 I9Z       0.109300
     19 C7          91.2610    -8.2970    15.9490 ca         1 I9Z      -0.136500
     20 C8          95.4000    -7.7230    13.4330 c3         1 I9Z      -0.114400
     21 C9          89.9950    -8.9250    15.9090 ca         1 I9Z      -0.072000
     22 C12         90.6830    -7.3650    18.1400 ca         1 I9Z      -0.119500
     23 C14         93.3880   -13.6470     7.5710 ca         1 I9Z      -0.099500
     24 N22         95.3820   -11.5430     9.7050 na         1 I9Z      -0.162500
     25 N24         93.3420   -12.4680     9.7940 nc         1 I9Z      -0.666000
     26 H1          88.1150    -9.2620    16.9270 ha         1 I9Z       0.117000
     27 H2          88.7250    -7.8780    18.9080 ha         1 I9Z       0.115000
     28 H3          92.5600    -7.0170    17.1430 ha         1 I9Z       0.131000
     29 H4          91.3760   -13.5850     8.3960 ha         1 I9Z       0.118000
     30 H5          90.3800   -15.0230     6.6460 ha         1 I9Z       0.109500
     31 H6          91.7980   -15.9340     4.8100 ha         1 I9Z       0.110000
     32 H7          94.2320   -15.4050     4.7440 ha         1 I9Z       0.109500
     33 H8          95.2480   -13.9820     6.4820 ha         1 I9Z       0.118000
     34 H9          95.9740   -12.3080     7.7510 h4         1 I9Z       0.156000
     35 H10         94.8350   -11.0880    12.3930 hc         1 I9Z       0.068700
     36 H11         93.1970   -11.7070    12.3270 hc         1 I9Z       0.068700
     37 H12         96.2840    -9.7080    10.2290 h1         1 I9Z       0.052367
     38 H13         96.9750   -11.1500    11.0330 h1         1 I9Z       0.052367
     39 H14         97.3320   -10.8290     9.3120 h1         1 I9Z       0.052367
     40 H15         92.4310    -9.6590    11.1230 hc         1 I9Z       0.058200
     41 H16         94.0710    -9.0350    11.0940 hc         1 I9Z       0.058200
     42 H17         95.3870    -6.9940    12.6150 hc         1 I9Z       0.055367
     43 H18         95.8610    -7.2440    14.3050 hc         1 I9Z       0.055367
     44 H19         96.0430    -8.5580    13.1300 hc         1 I9Z       0.055367
     45 H20         89.7110    -9.5330    15.0520 ha         1 I9Z       0.131000
     46 H21         90.9500    -6.7610    19.0040 ha         1 I9Z       0.117000
     47 C26         96.5650   -10.7590    10.0940 c3         1 I9Z       0.059900
@<TRIPOS>BOND
     1     1     2 ar  
     2     1    21 ar  
     3     1    26 1   
     4     2    22 ar  
     5     2    27 1   
     6     3    19 ar  
     7     3    22 ar  
     8     3    28 1   
     9     4     5 ar  
    10     4    23 ar  
    11     4    29 1   
    12     5     6 ar  
    13     5    30 1   
    14     6     7 ar  
    15     6    31 1   
    16     7     8 ar  
    17     7    32 1   
    18     8    23 ar  
    19     8    33 1   
    20     9    10 2   
    21     9    23 1   
    22     9    25 1   
    23    10    24 1   
    24    10    34 1   
    25    11    12 1   
    26    11    24 1   
    27    11    25 2   
    28    12    14 1   
    29    12    35 1   
    30    12    36 1   
    31    13    14 1   
    32    13    15 1   
    33    13    18 2   
    34    14    40 1   
    35    14    41 1   
    36    15    16 2   
    37    16    17 1   
    38    16    19 1   
    39    17    18 1   
    40    18    20 1   
    41    19    21 ar  
    42    20    42 1   
    43    20    43 1   
    44    20    44 1   
    45    21    45 1   
    46    22    46 1   
    47    24    47 1   
    48    37    47 1   
    49    38    47 1   
    50    39    47 1   
@<TRIPOS>SUBSTRUCTURE
     1 I9Z         1 TEMP              0 ****  ****    0 ROOT
