@<TRIPOS>MOLECULE
IA0
   66    71     1     0     0
SMALL
abcg2


@<TRIPOS>ATOM
      1 C6          14.0140     4.6140    12.2160 ca         1 IA0      -0.157500
      2 C5          13.3540     6.5250    10.7320 c3         1 IA0      -0.047800
      3 C4          13.1820     5.1200    11.2340 ca         1 IA0      -0.044300
      4 C2          12.0250     2.9980    11.1570 ca         1 IA0      -0.044300
      5 C3          12.1820     4.3000    10.7080 ca         1 IA0      -0.140000
      6 C1          10.9600     2.1060    10.5850 c3         1 IA0      -0.047800
      7 O1          15.5110    -8.3670    14.6660 o          1 IA0      -0.583100
      8 C7          13.8720     3.3010    12.6880 ca         1 IA0       0.321000
      9 N1          14.7650     2.9160    13.6840 nu         1 IA0      -0.925900
     10 C8          14.9180     1.7510    14.3720 ca         1 IA0       0.389900
     11 N2          15.8850     1.7830    15.2970 nb         1 IA0      -0.249000
     12 C9          16.0910     0.6860    16.0110 ca         1 IA0       0.178900
     13 C10         15.3390    -0.4540    15.8050 ca         1 IA0      -0.263300
     14 C11         14.3770    -0.3700    14.8180 ca         1 IA0       0.146300
     15 N3          14.1400     0.7050    14.0930 nb         1 IA0      -0.211000
     16 C12         13.6500    -1.6690    14.7280 c5         1 IA0       0.110500
     17 N4          14.5390    -2.5850    15.4400 n3         1 IA0      -0.738600
     18 C13         13.8630    -3.7600    15.9660 c6         1 IA0       0.198500
     19 C14         14.8510    -4.7500    16.6000 c6         1 IA0      -0.087400
     20 C15         15.3050    -5.8350    15.6430 c6         1 IA0       0.104000
     21 N5          14.1710    -6.6060    15.1330 n          1 IA0      -0.401800
     22 C16         14.4100    -7.8340    14.6480 c          1 IA0       0.620700
     23 C17         13.2630    -8.5770    14.0190 ca         1 IA0      -0.204600
     24 C18         12.9520    -8.3890    12.6910 ca         1 IA0       0.026000
     25 C19         11.9600    -9.1990    12.1360 ca         1 IA0      -0.010600
     26 N6          11.4400    -9.2450    10.8730 nc         1 IA0      -0.208400
     27 N7          10.5480   -10.1550    10.8400 nd         1 IA0      -0.154400
     28 N8          10.4470   -10.7250    12.0360 na         1 IA0      -0.070400
     29 C20         11.3150   -10.1690    12.9070 ca         1 IA0      -0.047200
     30 C21         11.6140   -10.3860    14.2520 ca         1 IA0      -0.168000
     31 C22         12.5960    -9.5740    14.7560 ca         1 IA0       0.234000
     32 F1          12.9490    -9.7160    16.0410 f          1 IA0      -0.163000
     33 C23         12.8650    -5.9390    15.0630 c6         1 IA0       0.125700
     34 C24         11.9760    -6.2320    16.2680 c3         1 IA0      -0.106100
     35 C25         13.1000    -4.4520    14.8280 c6         1 IA0      -0.092400
     36 C26         15.3030    -1.8100    16.4250 c5         1 IA0       0.243100
     37 C27         12.8710     2.4970    12.1490 ca         1 IA0      -0.157500
     38 H8          14.7920     5.2460    12.6330 ha         1 IA0       0.127500
     39 H6          12.4170     7.0810    10.7790 hc         1 IA0       0.042367
     40 H5          14.0970     7.0720    11.3110 hc         1 IA0       0.042367
     41 H7          13.6770     6.5320     9.6890 hc         1 IA0       0.042367
     42 H4          11.5220     4.6880     9.9400 ha         1 IA0       0.112000
     43 H3          11.3990     1.2810    10.0200 hc         1 IA0       0.042367
     44 H1          10.3490     1.6620    11.3720 hc         1 IA0       0.042367
     45 H2          10.2980     2.6500     9.9130 hc         1 IA0       0.042367
     46 H9          15.4150     3.6310    13.9740 hn         1 IA0       0.511000
     47 H10         16.8790     0.7320    16.7560 h4         1 IA0       0.026100
     48 H11         12.6620    -1.5600    15.2090 h1         1 IA0       0.063700
     49 H12         13.4730    -1.9810    13.6970 h1         1 IA0       0.063700
     50 H13         13.1400    -3.4570    16.7440 h1         1 IA0       0.024700
     51 H15         15.7400    -4.2400    16.9710 hc         1 IA0       0.054200
     52 H14         14.3960    -5.2130    17.4770 hc         1 IA0       0.054200
     53 H17         15.9880    -6.5100    16.1560 h1         1 IA0       0.062200
     54 H16         15.8590    -5.3970    14.8070 h1         1 IA0       0.062200
     55 H18         13.4540    -7.6340    12.0990 ha         1 IA0       0.146000
     56 H19          9.7830   -11.4720    12.1820 hn         1 IA0       0.387000
     57 H20         11.1230   -11.1340    14.8590 ha         1 IA0       0.147000
     58 H21         12.3460    -6.3120    14.1810 h1         1 IA0       0.056700
     59 H22         11.7890    -7.3000    16.3660 hc         1 IA0       0.043367
     60 H23         12.4050    -5.8850    17.2070 hc         1 IA0       0.043367
     61 H24         11.0120    -5.7400    16.1380 hc         1 IA0       0.043367
     62 H26         13.6730    -4.3480    13.9020 hc         1 IA0       0.059200
     63 H25         12.1340    -3.9720    14.6560 hc         1 IA0       0.059200
     64 H28         14.8080    -1.7750    17.4100 h1         1 IA0       0.048200
     65 H27         16.2980    -2.2310    16.5820 h1         1 IA0       0.048200
     66 H29         12.7390     1.4840    12.4960 ha         1 IA0       0.127500
@<TRIPOS>BOND
     1     1     3 ar  
     2     1     8 ar  
     3     1    38 1   
     4     2     3 1   
     5     2    39 1   
     6     2    40 1   
     7     2    41 1   
     8     3     5 ar  
     9     4     5 ar  
    10     4     6 1   
    11     4    37 ar  
    12     5    42 1   
    13     6    43 1   
    14     6    44 1   
    15     6    45 1   
    16     7    22 2   
    17     8     9 1   
    18     8    37 ar  
    19     9    10 1   
    20     9    46 1   
    21    10    11 ar  
    22    10    15 ar  
    23    11    12 ar  
    24    12    13 ar  
    25    12    47 1   
    26    13    14 ar  
    27    13    36 1   
    28    14    15 ar  
    29    14    16 1   
    30    16    17 1   
    31    16    48 1   
    32    16    49 1   
    33    17    18 1   
    34    17    36 1   
    35    18    19 1   
    36    18    35 1   
    37    18    50 1   
    38    19    20 1   
    39    19    51 1   
    40    19    52 1   
    41    20    21 1   
    42    20    53 1   
    43    20    54 1   
    44    21    22 1   
    45    21    33 1   
    46    22    23 1   
    47    23    24 ar  
    48    23    31 ar  
    49    24    25 ar  
    50    24    55 1   
    51    25    26 1   
    52    25    29 ar  
    53    26    27 2   
    54    27    28 1   
    55    28    29 1   
    56    28    56 1   
    57    29    30 ar  
    58    30    31 ar  
    59    30    57 1   
    60    31    32 1   
    61    33    34 1   
    62    33    35 1   
    63    33    58 1   
    64    34    59 1   
    65    34    60 1   
    66    34    61 1   
    67    35    62 1   
    68    35    63 1   
    69    36    64 1   
    70    36    65 1   
    71    37    66 1   
@<TRIPOS>SUBSTRUCTURE
     1 IA0         1 TEMP              0 ****  ****    0 ROOT
