@<TRIPOS>MOLECULE
IA0
   66    71     1     0     0
SMALL
No Charge or Current Charge


@<TRIPOS>ATOM
      1 C6          14.2940     4.6530    12.0150 ca         1 IA0      -0.157500
      2 C5          14.0380     6.2890    10.0890 c3         1 IA0      -0.047800
      3 C4          13.5070     5.1680    10.9690 ca         1 IA0      -0.044300
      4 C2          11.7310     3.5980    11.5530 ca         1 IA0      -0.044300
      5 C3          12.2280     4.6310    10.7380 ca         1 IA0      -0.140000
      6 C1          10.3420     3.0290    11.3090 c3         1 IA0      -0.047800
      7 O1          15.7390    -8.2960    14.2360 o          1 IA0      -0.583100
      8 C7          13.8200     3.6080    12.8240 ca         1 IA0       0.321000
      9 N1          14.6400     3.1400    13.8580 nu         1 IA0      -0.925900
     10 C8          14.7650     1.9320    14.5330 ca         1 IA0       0.389900
     11 N2          15.6100     1.9640    15.5870 nb         1 IA0      -0.249000
     12 C9          15.7760     0.8100    16.2710 ca         1 IA0       0.178900
     13 C10         15.0900    -0.3430    15.8710 ca         1 IA0      -0.263300
     14 C11         14.2580    -0.2760    14.7820 ca         1 IA0       0.146300
     15 N3          14.0750     0.8590    14.0840 nb         1 IA0      -0.211000
     16 C12         13.6380    -1.6260    14.5430 c5         1 IA0       0.110500
     17 N4          14.4780    -2.5750    15.3770 n3         1 IA0      -0.738600
     18 C13         13.8260    -3.8470    15.8050 c6         1 IA0       0.198500
     19 C14         14.7990    -4.7940    16.5770 c6         1 IA0      -0.087400
     20 C15         15.3130    -5.9700    15.7160 c6         1 IA0       0.104000
     21 N5          14.2240    -6.8050    15.1220 n          1 IA0      -0.401800
     22 C16         14.5710    -7.9790    14.4160 c          1 IA0       0.620700
     23 C17         13.4710    -8.8720    13.9520 ca         1 IA0      -0.204600
     24 C18         13.2600    -9.0600    12.5650 ca         1 IA0       0.026000
     25 C19         12.2210    -9.9120    12.1590 ca         1 IA0      -0.010600
     26 N6          11.8100   -10.2460    10.8740 nc         1 IA0      -0.208400
     27 N7          10.7870   -11.0940    11.0010 nd         1 IA0      -0.154400
     28 N8          10.5660   -11.2840    12.3550 na         1 IA0      -0.070400
     29 C20         11.4530   -10.5510    13.0790 ca         1 IA0      -0.047200
     30 C21         11.6410   -10.4240    14.4600 ca         1 IA0      -0.168000
     31 C22         12.6760    -9.5720    14.8910 ca         1 IA0       0.234000
     32 F1          12.9270    -9.4590    16.2150 f          1 IA0      -0.163000
     33 C23         12.9380    -6.0880    14.8450 c6         1 IA0       0.125700
     34 C24         11.8480    -6.3080    15.9330 c3         1 IA0      -0.106100
     35 C25         13.1930    -4.5800    14.5860 c6         1 IA0      -0.092400
     36 C26         15.1050    -1.7240    16.4590 c5         1 IA0       0.243100
     37 C27         12.5300     3.0930    12.5950 ca         1 IA0      -0.157500
     38 H8          15.2850     5.0620    12.1910 ha         1 IA0       0.127500
     39 H6          13.2230     6.9090     9.6950 hc         1 IA0       0.042367
     40 H5          14.7130     6.9490    10.6460 hc         1 IA0       0.042367
     41 H7          14.5940     5.8850     9.2350 hc         1 IA0       0.042367
     42 H4          11.6160     5.0210     9.9280 ha         1 IA0       0.112000
     43 H3          10.3880     2.1590    10.6430 hc         1 IA0       0.042367
     44 H1           9.8710     2.7090    12.2470 hc         1 IA0       0.042367
     45 H2           9.6800     3.7710    10.8460 hc         1 IA0       0.042367
     46 H9          15.3620     3.8050    14.1330 hn         1 IA0       0.511000
     47 H10         16.4510     0.8200    17.1250 h4         1 IA0       0.026100
     48 H11         12.5910    -1.6090    14.8770 h1         1 IA0       0.063700
     49 H12         13.6520    -1.8900    13.4770 h1         1 IA0       0.063700
     50 H13         13.0110    -3.5960    16.5000 h1         1 IA0       0.024700
     51 H15         15.6590    -4.2530    16.9880 hc         1 IA0       0.054200
     52 H14         14.2790    -5.2050    17.4520 hc         1 IA0       0.054200
     53 H17         15.9550    -6.6100    16.3380 h1         1 IA0       0.062200
     54 H16         15.9400    -5.5730    14.9040 h1         1 IA0       0.062200
     55 H18         13.8760    -8.5500    11.8280 ha         1 IA0       0.146000
     56 H19          9.8310   -11.8960    12.6970 hn         1 IA0       0.387000
     57 H20         11.0260   -10.9650    15.1740 ha         1 IA0       0.147000
     58 H21         12.5180    -6.4830    13.9090 h1         1 IA0       0.056700
     59 H22         11.5070    -7.3460    15.9560 hc         1 IA0       0.043367
     60 H23         12.2050    -6.0560    16.9370 hc         1 IA0       0.043367
     61 H24         10.9650    -5.6910    15.7310 hc         1 IA0       0.043367
     62 H26         13.8580    -4.4880    13.7160 hc         1 IA0       0.059200
     63 H25         12.2530    -4.0890    14.3000 hc         1 IA0       0.059200
     64 H28         14.5130    -1.7430    17.3850 h1         1 IA0       0.048200
     65 H27         16.1280    -2.0460    16.6980 h1         1 IA0       0.048200
     66 H29         12.1320     2.3120    13.2330 ha         1 IA0       0.127500
@<TRIPOS>BOND
     1     1     3 ar  
     2     1     8 ar  
     3     1    38 1   
     4     2     3 1   
     5     2    39 1   
     6     2    40 1   
     7     2    41 1   
     8     3     5 ar  
     9     4     5 ar  
    10     4     6 1   
    11     4    37 ar  
    12     5    42 1   
    13     6    43 1   
    14     6    44 1   
    15     6    45 1   
    16     7    22 2   
    17     8     9 1   
    18     8    37 ar  
    19     9    10 1   
    20     9    46 1   
    21    10    11 ar  
    22    10    15 ar  
    23    11    12 ar  
    24    12    13 ar  
    25    12    47 1   
    26    13    14 ar  
    27    13    36 1   
    28    14    15 ar  
    29    14    16 1   
    30    16    17 1   
    31    16    48 1   
    32    16    49 1   
    33    17    18 1   
    34    17    36 1   
    35    18    19 1   
    36    18    35 1   
    37    18    50 1   
    38    19    20 1   
    39    19    51 1   
    40    19    52 1   
    41    20    21 1   
    42    20    53 1   
    43    20    54 1   
    44    21    22 1   
    45    21    33 1   
    46    22    23 1   
    47    23    24 ar  
    48    23    31 ar  
    49    24    25 ar  
    50    24    55 1   
    51    25    26 1   
    52    25    29 ar  
    53    26    27 2   
    54    27    28 1   
    55    28    29 1   
    56    28    56 1   
    57    29    30 ar  
    58    30    31 ar  
    59    30    57 1   
    60    31    32 1   
    61    33    34 1   
    62    33    35 1   
    63    33    58 1   
    64    34    59 1   
    65    34    60 1   
    66    34    61 1   
    67    35    62 1   
    68    35    63 1   
    69    36    64 1   
    70    36    65 1   
    71    37    66 1   
@<TRIPOS>SUBSTRUCTURE
     1 IA0         1 TEMP              0 ****  ****    0 ROOT
