@<TRIPOS>MOLECULE
IA1
   77    81     1     0     0
SMALL
bcc


@<TRIPOS>ATOM
      1 C13         93.4520   107.2690    74.4540 c6         1 IA1      -0.070400
      2 C15         94.7690   108.0270    74.5850 c6         1 IA1      -0.073900
      3 C17         91.1040   107.2420    73.5410 c3         1 IA1      -0.066400
      4 C20         88.9900   109.6250    72.6520 cc         1 IA1       0.395800
      5 C21         89.6290   111.1020    71.1590 cd         1 IA1       0.545300
      6 C22         88.2240   109.2460    73.8520 ca         1 IA1      -0.072500
      7 C24         90.1170   113.8700    68.7710 cc         1 IA1      -0.134300
      8 C26         87.2670   108.2350    73.8280 ca         1 IA1       0.085100
      9 C28         90.3540   112.5470    69.3600 c          1 IA1       0.702300
     10 C11         92.4150   108.0330    73.6280 c6         1 IA1      -0.058700
     11 C12         92.2210   109.4340    74.2160 c6         1 IA1      -0.070400
     12 C14         93.5340   110.1970    74.3500 c6         1 IA1      -0.073900
     13 C16         94.5540   109.4170    75.1710 c6         1 IA1      -0.072400
     14 C18         90.2990   107.4260    72.2510 c3         1 IA1       0.004900
     15 C19         89.8590   108.8280    71.9740 cd         1 IA1      -0.169700
     16 C23         90.3950   115.6330    67.4450 ca         1 IA1      -0.017200
     17 C25         89.1600   115.7820    68.1170 ca         1 IA1      -0.114800
     18 C27         88.4540   109.9390    75.0400 ca         1 IA1      -0.177000
     19 C29         89.0030   114.6540    68.9500 cd         1 IA1      -0.186200
     20 C30         90.8220   116.6050    66.5090 ca         1 IA1      -0.044300
     21 C32         88.3370   116.8960    67.8880 ca         1 IA1      -0.087000
     22 C33         88.7430   117.8540    66.9930 ca         1 IA1      -0.117300
     23 C34         89.9750   117.6790    66.3220 ca         1 IA1      -0.138000
     24 C35         87.7660   109.6320    76.2070 ca         1 IA1       0.134100
     25 C36         86.5630   107.9210    74.9860 ca         1 IA1      -0.111000
     26 C37         92.0870   116.5270    65.7030 c3         1 IA1      -0.047800
     27 C38         86.8160   108.6070    76.1570 ca         1 IA1      -0.006600
     28 C39         87.9090   119.0700    66.7070 c3         1 IA1      -0.030800
     29 C40         92.1230   112.9560    66.2270 c          1 IA1       0.933600
     30 C41         86.1670   108.2130    71.7620 c3         1 IA1       0.124700
     31 C42         88.9380   111.2470    77.4790 c3         1 IA1       0.123700
     32 N8          88.8770   110.9120    72.1930 nc         1 IA1      -0.727000
     33 N10         90.9710   114.4670    67.8760 na         1 IA1       0.063600
     34 O3          87.0020   107.5360    72.6910 os         1 IA1      -0.335900
     35 O4          91.0760   111.6870    68.8830 o          1 IA1      -0.532100
     36 O5          87.9440   110.2440    77.3850 os         1 IA1      -0.305900
     37 O6          91.0350   112.9160    65.6300 o          1 IA1      -0.810300
     38 O7          93.1730   112.3420    65.9650 o          1 IA1      -0.810300
     39 S2          90.5570   109.7300    70.6720 ss         1 IA1      -0.051300
     40 CL1         85.9380   108.2080    77.5910 cl         1 IA1      -0.107400
     41 H1          93.0410   107.0800    75.4540 hc         1 IA1       0.035950
     42 H2          93.6290   106.2880    74.0040 hc         1 IA1       0.035950
     43 H3          95.2300   108.1210    73.5950 hc         1 IA1       0.038450
     44 H4          95.4700   107.4580    75.2000 hc         1 IA1       0.038450
     45 H5          90.4750   107.4740    74.4060 hc         1 IA1       0.039200
     46 H6          91.3250   106.1720    73.6140 hc         1 IA1       0.039200
     47 H7          92.8220   108.1440    72.6120 hc         1 IA1       0.053700
     48 H8          91.7570   109.3340    75.2060 hc         1 IA1       0.035950
     49 H9          91.5220   110.0120    73.6100 hc         1 IA1       0.035950
     50 H10         93.9440   110.3910    73.3530 hc         1 IA1       0.038450
     51 H11         93.3500   111.1760    74.8020 hc         1 IA1       0.038450
     52 H12         95.5000   109.9610    75.2210 hc         1 IA1       0.032200
     53 H13         94.1930   109.3230    76.2010 hc         1 IA1       0.032200
     54 H14         89.4190   106.7810    72.2860 hc         1 IA1       0.055200
     55 H15         90.8980   107.0630    71.4120 hc         1 IA1       0.055200
     56 H16         89.1990   110.7230    75.0360 ha         1 IA1       0.151000
     57 H17         88.1460   114.4350    69.5690 ha         1 IA1       0.137000
     58 H18         92.7060   113.3960    68.2730 h1         1 IA1       0.049200
     59 H19         92.9060   114.7290    67.1910 h1         1 IA1       0.049200
     60 H20         87.3940   116.9900    68.4150 ha         1 IA1       0.116000
     61 H21         90.2710   118.4360    65.6030 ha         1 IA1       0.111000
     62 H22         85.8160   107.1380    74.9640 ha         1 IA1       0.153000
     63 H23         92.9820   116.6070    66.3200 hc         1 IA1       0.046367
     64 H24         92.1550   115.5950    65.1410 hc         1 IA1       0.046367
     65 H25         92.1210   117.3440    64.9830 hc         1 IA1       0.046367
     66 H26         87.6500   119.1370    65.6490 hc         1 IA1       0.027033
     67 H27         86.9800   119.0550    67.2750 hc         1 IA1       0.027033
     68 H28         88.4400   119.9880    66.9630 hc         1 IA1       0.027033
     69 H29         86.0690   107.5680    70.8910 h1         1 IA1       0.039367
     70 H30         85.1750   108.3970    72.1820 h1         1 IA1       0.039367
     71 H31         86.5970   109.1660    71.4460 h1         1 IA1       0.039367
     72 H32         88.9320   111.5890    78.5100 h1         1 IA1       0.043033
     73 H33         89.9310   110.8570    77.2410 h1         1 IA1       0.043033
     74 H34         88.7230   112.0960    76.8250 h1         1 IA1       0.043033
     75 H091        89.1170   113.0470    70.9420 hn         1 IA1       0.342500
     76 C31         92.2350   113.9100    67.4380 c3         1 IA1      -0.130700
     77 N9          89.6620   112.3120    70.5120 ns         1 IA1      -0.541400
@<TRIPOS>BOND
     1     1     2 1   
     2     1    10 1   
     3     1    41 1   
     4     1    42 1   
     5     2    13 1   
     6     2    43 1   
     7     2    44 1   
     8     3    10 1   
     9     3    14 1   
    10     3    45 1   
    11     3    46 1   
    12     4     6 1   
    13     4    15 2   
    14     4    32 1   
    15     5    32 2   
    16     5    39 1   
    17     5    77 1   
    18     6     8 ar  
    19     6    18 ar  
    20     7     9 1   
    21     7    19 2   
    22     7    33 1   
    23     8    25 ar  
    24     8    34 1   
    25     9    35 2   
    26     9    77 1   
    27    10    11 1   
    28    10    47 1   
    29    11    12 1   
    30    11    48 1   
    31    11    49 1   
    32    12    13 1   
    33    12    50 1   
    34    12    51 1   
    35    13    52 1   
    36    13    53 1   
    37    14    15 1   
    38    14    54 1   
    39    14    55 1   
    40    15    39 1   
    41    16    17 ar  
    42    16    20 ar  
    43    16    33 1   
    44    17    19 1   
    45    17    21 ar  
    46    18    24 ar  
    47    18    56 1   
    48    19    57 1   
    49    20    23 ar  
    50    20    26 1   
    51    21    22 ar  
    52    21    60 1   
    53    22    23 ar  
    54    22    28 1   
    55    23    61 1   
    56    24    27 ar  
    57    24    36 1   
    58    25    27 ar  
    59    25    62 1   
    60    26    63 1   
    61    26    64 1   
    62    26    65 1   
    63    27    40 1   
    64    28    66 1   
    65    28    67 1   
    66    28    68 1   
    67    29    37 1   
    68    29    38 1   
    69    29    76 1   
    70    30    34 1   
    71    30    69 1   
    72    30    70 1   
    73    30    71 1   
    74    31    36 1   
    75    31    72 1   
    76    31    73 1   
    77    31    74 1   
    78    33    76 1   
    79    58    76 1   
    80    59    76 1   
    81    75    77 1   
@<TRIPOS>SUBSTRUCTURE
     1 IA1         1 TEMP              0 ****  ****    0 ROOT
