@<TRIPOS>MOLECULE
IA1
   77    81     1     0     0
SMALL
No Charge or Current Charge


@<TRIPOS>ATOM
      1 C13         92.9480   107.3230    75.3900 c6         1 IA1      -0.070400
      2 C15         94.3380   107.9410    75.6760 c6         1 IA1      -0.073900
      3 C17         90.9230   107.2250    73.8260 c3         1 IA1      -0.066400
      4 C20         88.9960   109.5920    72.4360 cc         1 IA1       0.330500
      5 C21         89.7220   110.8970    70.8320 cd         1 IA1       0.545300
      6 C22         88.2330   109.2340    73.6300 ca         1 IA1      -0.072500
      7 C24         90.3010   113.7400    68.4890 cc         1 IA1      -0.134300
      8 C26         87.2440   108.2110    73.6570 ca         1 IA1       0.085100
      9 C28         90.5440   112.3660    69.0220 c          1 IA1       0.635300
     10 C11         92.3140   107.8920    74.0860 c6         1 IA1      -0.058700
     11 C12         92.2500   109.4470    74.1740 c6         1 IA1      -0.070400
     12 C14         93.6390   110.0670    74.4610 c6         1 IA1      -0.073900
     13 C16         94.2590   109.4830    75.7520 c6         1 IA1      -0.072400
     14 C18         90.3320   107.3370    72.3950 c3         1 IA1       0.004900
     15 C19         89.9440   108.7260    71.9390 cd         1 IA1      -0.249300
     16 C23         90.3430   115.7030    67.2350 ca         1 IA1      -0.017200
     17 C25         89.4070   115.8730    68.2260 ca         1 IA1      -0.114800
     18 C27         88.5600   109.9070    74.8270 ca         1 IA1      -0.159000
     19 C29         89.3840   114.6610    68.9910 cd         1 IA1      -0.236200
     20 C30         90.5540   116.7360    66.2800 ca         1 IA1      -0.044300
     21 C32         88.6460   117.0350    68.3800 ca         1 IA1      -0.069000
     22 C33         88.8500   118.0830    67.4630 ca         1 IA1      -0.117300
     23 C34         89.7960   117.9250    66.4240 ca         1 IA1      -0.120000
     24 C35         87.9560   109.5530    76.0510 ca         1 IA1       0.134100
     25 C36         86.6550   107.8550    74.8820 ca         1 IA1      -0.093000
     26 C37         91.5220   116.6490    65.1040 c3         1 IA1      -0.047800
     27 C38         87.0040   108.5150    76.0700 ca         1 IA1       0.085000
     28 C39         88.0550   119.3740    67.5830 c3         1 IA1      -0.030800
     29 C40         91.7190   113.1650    65.3450 c          1 IA1       0.723000
     30 C41         86.6900   108.1140    71.2370 c3         1 IA1       0.147900
     31 C42         89.2860   111.2080    77.3210 c3         1 IA1       0.146900
     32 N8          88.8800   110.8220    71.8450 nc         1 IA1      -0.727000
     33 N10         90.9100   114.4210    67.4030 na         1 IA1       0.034300
     34 O3          86.7950   107.5200    72.5450 os         1 IA1      -0.359100
     35 O4          91.3580   111.5890    68.5490 o          1 IA1      -0.532100
     36 O5          88.2810   110.1820    77.2410 os         1 IA1      -0.329100
     37 O6          90.5950   112.7010    65.2100 o          1 IA1      -0.705000
     38 O7          92.5930   113.0640    64.4950 o          1 IA1      -0.705000
     39 S2          90.7210   109.4580    70.5460 ss         1 IA1       0.093600
     40 Cl1         86.2260   108.0280    77.5770 cl         1 IA1      -0.199000
     41 H1          92.2800   107.5150    76.2420 hc         1 IA1       0.035950
     42 H2          93.0480   106.2320    75.3140 hc         1 IA1       0.035950
     43 H3          95.0450   107.6440    74.8880 hc         1 IA1       0.038450
     44 H4          94.7370   107.5420    76.6190 hc         1 IA1       0.038450
     45 H5          90.1930   107.5930    74.5550 hc         1 IA1       0.039200
     46 H6          91.0110   106.1510    74.0330 hc         1 IA1       0.039200
     47 H7          92.9600   107.6120    73.2410 hc         1 IA1       0.053700
     48 H8          91.5490   109.7440    74.9650 hc         1 IA1       0.035950
     49 H9          91.8700   109.8780    73.2420 hc         1 IA1       0.035950
     50 H10         94.3100   109.8810    73.6110 hc         1 IA1       0.038450
     51 H11         93.5480   111.1580    74.5530 hc         1 IA1       0.038450
     52 H12         95.2630   109.9020    75.9070 hc         1 IA1       0.032200
     53 H13         93.6560   109.7820    76.6210 hc         1 IA1       0.032200
     54 H14         89.4520   106.6860    72.3400 hc         1 IA1       0.055200
     55 H15         91.0550   106.9050    71.6920 hc         1 IA1       0.055200
     56 H16         89.3100   110.6920    74.7840 ha         1 IA1       0.133000
     57 H17         88.7220   114.5040    69.8390 ha         1 IA1       0.187000
     58 H18         92.6610   113.2580    67.2620 h1         1 IA1       0.049200
     59 H19         92.7370   114.7650    66.3860 h1         1 IA1       0.049200
     60 H20         87.9190   117.1220    69.1840 ha         1 IA1       0.098000
     61 H21         89.9370   118.7390    65.7160 ha         1 IA1       0.093000
     62 H22         85.9090   107.0660    74.9080 ha         1 IA1       0.135000
     63 H23         92.5640   116.7080    65.4380 hc         1 IA1       0.046367
     64 H24         91.3820   115.7250    64.5350 hc         1 IA1       0.046367
     65 H25         91.3710   117.4730    64.3970 hc         1 IA1       0.046367
     66 H26         87.7960   119.7740    66.5960 hc         1 IA1       0.027033
     67 H27         87.1190   119.2200    68.1320 hc         1 IA1       0.027033
     68 H28         88.6330   120.1400    68.1140 hc         1 IA1       0.027033
     69 H29         86.0490   107.4960    70.5960 h1         1 IA1       0.039367
     70 H30         86.2450   109.1160    71.2970 h1         1 IA1       0.039367
     71 H31         87.6660   108.1840    70.7450 h1         1 IA1       0.039367
     72 H32         89.3880   111.5600    78.3550 h1         1 IA1       0.043033
     73 H33         90.2620   110.8250    76.9950 h1         1 IA1       0.043033
     74 H34         89.0170   112.0690    76.6950 h1         1 IA1       0.043033
     75 H091        89.1320   112.7790    70.3930 hn         1 IA1       0.342500
     76 C31         92.0730   113.9330    66.6310 c3         1 IA1      -0.101400
     77 N9          89.7610   112.0500    70.1030 ns         1 IA1      -0.474400
@<TRIPOS>BOND
     1     1     2 1   
     2     1    10 1   
     3     1    41 1   
     4     1    42 1   
     5     2    13 1   
     6     2    43 1   
     7     2    44 1   
     8     3    10 1   
     9     3    14 1   
    10     3    45 1   
    11     3    46 1   
    12     4     6 1   
    13     4    15 2   
    14     4    32 1   
    15     5    32 2   
    16     5    39 1   
    17     5    77 1   
    18     6     8 ar  
    19     6    18 ar  
    20     7     9 1   
    21     7    19 2   
    22     7    33 1   
    23     8    25 ar  
    24     8    34 1   
    25     9    35 2   
    26     9    77 1   
    27    10    11 1   
    28    10    47 1   
    29    11    12 1   
    30    11    48 1   
    31    11    49 1   
    32    12    13 1   
    33    12    50 1   
    34    12    51 1   
    35    13    52 1   
    36    13    53 1   
    37    14    15 1   
    38    14    54 1   
    39    14    55 1   
    40    15    39 1   
    41    16    17 ar  
    42    16    20 ar  
    43    16    33 1   
    44    17    19 1   
    45    17    21 ar  
    46    18    24 ar  
    47    18    56 1   
    48    19    57 1   
    49    20    23 ar  
    50    20    26 1   
    51    21    22 ar  
    52    21    60 1   
    53    22    23 ar  
    54    22    28 1   
    55    23    61 1   
    56    24    27 ar  
    57    24    36 1   
    58    25    27 ar  
    59    25    62 1   
    60    26    63 1   
    61    26    64 1   
    62    26    65 1   
    63    27    40 1   
    64    28    66 1   
    65    28    67 1   
    66    28    68 1   
    67    29    37 1   
    68    29    38 1   
    69    29    76 1   
    70    30    34 1   
    71    30    69 1   
    72    30    70 1   
    73    30    71 1   
    74    31    36 1   
    75    31    72 1   
    76    31    73 1   
    77    31    74 1   
    78    33    76 1   
    79    58    76 1   
    80    59    76 1   
    81    75    77 1   
@<TRIPOS>SUBSTRUCTURE
     1 IA1         1 TEMP              0 ****  ****    0 ROOT
