@<TRIPOS>MOLECULE
IA2
   21    22     1     0     0
SMALL
abcg2


@<TRIPOS>ATOM
      1 CL18        -3.9220    -2.0340     1.1630 cl         1 IA2      -0.118000
      2 C10         -2.7270    -1.0030     0.5480 cc         1 IA2       0.031000
      3 C9          -2.8720     0.1530    -0.1710 cd         1 IA2       0.057000
      4 CL17        -4.3340     0.8550    -0.6810 cl         1 IA2      -0.131000
      5 C8          -1.5700     0.6410    -0.4200 cd         1 IA2       0.086000
      6 CL16        -1.2040     2.0200    -1.3500 cl         1 IA2      -0.139000
      7 C7          -0.6730    -0.2280     0.1540 cc         1 IA2      -0.091000
      8 C4           0.7870    -0.2530     0.1510 ca         1 IA2      -0.055000
      9 C5           1.4550    -1.3970    -0.2740 ca         1 IA2      -0.054000
     10 C6           2.8370    -1.4430    -0.2630 ca         1 IA2       0.079000
     11 CL13         3.6510    -2.8720    -0.8000 cl         1 IA2      -0.184000
     12 C3           1.5170     0.8560     0.6010 ca         1 IA2       0.189100
     13 C2           2.9110     0.7800     0.5810 ca         1 IA2       0.014000
     14 N1          -1.4060    -1.2260     0.7310 na         1 IA2      -0.090000
     15 CL14         3.8180     2.1470     1.1330 cl         1 IA2      -0.188000
     16 C1           3.5800    -0.3540     0.1570 ca         1 IA2      -0.039000
     17 O12          0.8440     1.9150     1.0470 oh         1 IA2      -0.501100
     18 H1          -1.0190    -1.9830     1.2760 hn         1 IA2       0.364000
     19 H5           0.8870    -2.2460    -0.6320 ha         1 IA2       0.137000
     20 H12          1.4410     2.6340     1.2940 ho         1 IA2       0.484000
     21 HA           4.6600    -0.3810     0.1600 ha         1 IA2       0.147000
@<TRIPOS>BOND
     1     1     2 1   
     2     2     3 2   
     3     2    14 1   
     4     3     4 1   
     5     3     5 1   
     6     5     6 1   
     7     5     7 2   
     8     7     8 1   
     9     7    14 1   
    10     8     9 ar  
    11     8    12 ar  
    12     9    10 ar  
    13     9    19 1   
    14    10    11 1   
    15    10    16 ar  
    16    12    13 ar  
    17    12    17 1   
    18    13    15 1   
    19    13    16 ar  
    20    14    18 1   
    21    16    21 1   
    22    17    20 1   
@<TRIPOS>SUBSTRUCTURE
     1 IA2         1 TEMP              0 ****  ****    0 ROOT
