@<TRIPOS>MOLECULE
IA2
   21    22     1     0     0
SMALL
No Charge or Current Charge


@<TRIPOS>ATOM
      1 Cl18        -4.1940    -1.9120     1.1680 cl         1 IA2      -0.118000
      2 C10         -2.8370    -0.9900     0.6010 cc         1 IA2       0.031000
      3 C9          -2.8450     0.1170    -0.2090 cd         1 IA2       0.057000
      4 Cl17        -4.2320     0.9010    -0.9020 cl         1 IA2      -0.131000
      5 C8          -1.5100     0.5270    -0.4300 cd         1 IA2       0.086000
      6 Cl16        -1.0640     1.8450    -1.4740 cl         1 IA2      -0.139000
      7 C7          -0.6870    -0.3180     0.2710 cc         1 IA2      -0.091000
      8 C4           0.7740    -0.2780     0.2140 ca         1 IA2      -0.055000
      9 C5           1.4670    -1.4010    -0.2780 ca         1 IA2      -0.054000
     10 C6           2.8700    -1.3970    -0.3520 ca         1 IA2       0.079000
     11 Cl13         3.7180    -2.8040    -0.9820 cl         1 IA2      -0.184000
     12 C3           1.5080     0.8490     0.6580 ca         1 IA2       0.189100
     13 C2           2.9180     0.8460     0.5810 ca         1 IA2       0.014000
     14 N1          -1.5000    -1.2810     0.8730 na         1 IA2      -0.090000
     15 Cl14         3.8520     2.2390     1.1290 cl         1 IA2      -0.188000
     16 C1           3.5960    -0.2750     0.0730 ca         1 IA2      -0.039000
     17 O12          0.8620     1.9320     1.1940 oh         1 IA2      -0.501100
     18 H1          -1.1760    -2.0630     1.4320 hn         1 IA2       0.364000
     19 H5           0.9170    -2.2750    -0.6180 ha         1 IA2       0.137000
     20 H12          1.5420     2.5940     1.4420 ho         1 IA2       0.484000
     21 HA           4.6810    -0.2760     0.0150 ha         1 IA2       0.147000
@<TRIPOS>BOND
     1     1     2 1   
     2     2     3 2   
     3     2    14 1   
     4     3     4 1   
     5     3     5 1   
     6     5     6 1   
     7     5     7 2   
     8     7     8 1   
     9     7    14 1   
    10     8     9 ar  
    11     8    12 ar  
    12     9    10 ar  
    13     9    19 1   
    14    10    11 1   
    15    10    16 ar  
    16    12    13 ar  
    17    12    17 1   
    18    13    15 1   
    19    13    16 ar  
    20    14    18 1   
    21    16    21 1   
    22    17    20 1   
@<TRIPOS>SUBSTRUCTURE
     1 IA2         1 TEMP              0 ****  ****    0 ROOT
