@<TRIPOS>MOLECULE
IA3
   56    58     1     0     0
SMALL
bcc


@<TRIPOS>ATOM
      1 C1          21.4350    -0.8640     0.3070 c3         1 IA3       0.124700
      2 C3          19.7660    -2.3290     1.0550 c          1 IA3       0.641300
      3 C5          18.6690    -3.2590     0.6180 ce         1 IA3       0.153900
      4 C7          17.7680    -3.6930     1.5290 cf         1 IA3      -0.375200
      5 C8          16.5920    -4.4200     1.0890 c          1 IA3       0.604300
      6 C10         15.3690    -4.5150     1.9980 c6         1 IA3      -0.125000
      7 C11         14.4730    -3.2940     1.6180 c3         1 IA3      -0.022100
      8 C12         15.2490    -2.0190     1.4340 ca         1 IA3      -0.086300
      9 C13         15.6860    -1.2700     2.5250 ca         1 IA3      -0.118500
     10 C14         16.5640    -0.2090     2.3640 ca         1 IA3      -0.117000
     11 C15         17.0000     0.1170     1.0890 ca         1 IA3       0.024400
     12 C17         16.5290    -0.5640    -0.0220 ca         1 IA3      -0.117000
     13 C18         15.6520    -1.6210     0.1610 ca         1 IA3      -0.118500
     14 C19         14.5910    -5.8070     1.7340 c6         1 IA3      -0.066400
     15 C20         15.3470    -7.0390     2.2060 c6         1 IA3       0.161300
     16 C23         16.4740    -8.2240     5.5560 ca         1 IA3      -0.122300
     17 C24         17.6680    -8.0040     6.2240 ca         1 IA3       0.136900
     18 C26         17.7810    -8.0420     7.6020 ca         1 IA3      -0.173000
     19 C27         16.6480    -8.3090     8.3570 ca         1 IA3      -0.100000
     20 C28         15.4300    -8.5280     7.7260 ca         1 IA3      -0.148000
     21 C29         15.3530    -8.4820     6.3430 ca         1 IA3      -0.083000
     22 C30         16.4670    -5.7690     3.8990 c6         1 IA3       0.161300
     23 C31         15.7200    -4.5110     3.4880 c6         1 IA3      -0.066400
     24 F25         18.7750    -7.7280     5.5100 f          1 IA3      -0.147900
     25 N21         15.6800    -6.9550     3.6170 n3         1 IA3      -0.716600
     26 O2          20.3870    -1.7960     0.0280 os         1 IA3      -0.382900
     27 O4          20.0130    -2.1060     2.2120 o          1 IA3      -0.514000
     28 O6          18.6400    -3.5380    -0.6650 oh         1 IA3      -0.474100
     29 O9          16.5250    -4.8430    -0.0680 o          1 IA3      -0.594100
     30 CL1         18.1490     1.4000     0.8830 cl         1 IA3      -0.115400
     31 H1          21.8060    -0.5380    -0.6600 h1         1 IA3       0.053700
     32 H2          21.0580    -0.0050     0.8610 h1         1 IA3       0.053700
     33 H3          22.2420    -1.3340     0.8680 h1         1 IA3       0.053700
     34 H4          17.8830    -3.3860     2.5540 ha         1 IA3       0.175000
     35 H5          13.7170    -3.1840     2.3990 hc         1 IA3       0.060200
     36 H6          13.9460    -3.5340     0.6910 hc         1 IA3       0.060200
     37 H7          15.3580    -1.5280     3.5240 ha         1 IA3       0.138500
     38 H8          16.9120     0.3460     3.2240 ha         1 IA3       0.151000
     39 H9          16.8520    -0.2860    -1.0170 ha         1 IA3       0.151000
     40 H10         15.3010    -2.1660    -0.7080 ha         1 IA3       0.138500
     41 H11         13.6390    -5.7420     2.2700 hc         1 IA3       0.056450
     42 H12         14.3510    -5.9100     0.6760 hc         1 IA3       0.056450
     43 H13         14.7240    -7.9230     2.0490 h1         1 IA3       0.039950
     44 H14         16.2500    -7.1820     1.5870 h1         1 IA3       0.039950
     45 H15         15.7360    -9.0180     3.7370 h1         1 IA3       0.046200
     46 H16         17.3270    -8.2980     3.5760 h1         1 IA3       0.046200
     47 H17         18.7390    -7.8640     8.0730 ha         1 IA3       0.150000
     48 H18         16.7210    -8.3430     9.4360 ha         1 IA3       0.135000
     49 H19         14.5440    -8.7370     8.3120 ha         1 IA3       0.136000
     50 H20         14.4030    -8.6550     5.8510 ha         1 IA3       0.140000
     51 H21         17.4510    -5.8080     3.3980 h1         1 IA3       0.039950
     52 H22         16.6660    -5.7160     4.9710 h1         1 IA3       0.039950
     53 H23         16.2950    -3.6340     3.7850 hc         1 IA3       0.056450
     54 H24         14.7830    -4.4620     4.0510 hc         1 IA3       0.056450
     55 H26         17.8610    -4.1370    -0.7990 ho         1 IA3       0.482000
     56 C22         16.3470    -8.1690     4.0580 c3         1 IA3       0.216100
@<TRIPOS>BOND
     1     1    26 1   
     2     1    31 1   
     3     1    32 1   
     4     1    33 1   
     5     2     3 1   
     6     2    26 1   
     7     2    27 2   
     8     3     4 2   
     9     3    28 1   
    10     4     5 1   
    11     4    34 1   
    12     5     6 1   
    13     5    29 2   
    14     6     7 1   
    15     6    14 1   
    16     6    23 1   
    17     7     8 1   
    18     7    35 1   
    19     7    36 1   
    20     8     9 ar  
    21     8    13 ar  
    22     9    10 ar  
    23     9    37 1   
    24    10    11 ar  
    25    10    38 1   
    26    11    12 ar  
    27    11    30 1   
    28    12    13 ar  
    29    12    39 1   
    30    13    40 1   
    31    14    15 1   
    32    14    41 1   
    33    14    42 1   
    34    15    25 1   
    35    15    43 1   
    36    15    44 1   
    37    16    17 ar  
    38    16    21 ar  
    39    16    56 1   
    40    17    18 ar  
    41    17    24 1   
    42    18    19 ar  
    43    18    47 1   
    44    19    20 ar  
    45    19    48 1   
    46    20    21 ar  
    47    20    49 1   
    48    21    50 1   
    49    22    23 1   
    50    22    25 1   
    51    22    51 1   
    52    22    52 1   
    53    23    53 1   
    54    23    54 1   
    55    25    56 1   
    56    28    55 1   
    57    45    56 1   
    58    46    56 1   
@<TRIPOS>SUBSTRUCTURE
     1 IA3         1 TEMP              0 ****  ****    0 ROOT
