@<TRIPOS>MOLECULE
IA3
   56    58     1     0     0
SMALL
No Charge or Current Charge


@<TRIPOS>ATOM
      1 C1          22.6760    -2.8810     0.3580 c3         1 IA3       0.147900
      2 C3          20.3760    -3.3400     0.9420 c          1 IA3       0.592300
      3 C5          18.9920    -3.6820     0.3850 ce         1 IA3       0.153900
      4 C7          17.8920    -3.8620     1.1770 cf         1 IA3      -0.425200
      5 C8          16.5170    -4.1790     0.6890 c          1 IA3       0.604300
      6 C10         15.3160    -4.3940     1.6780 c6         1 IA3      -0.125000
      7 C11         14.2110    -3.3370     1.3130 c3         1 IA3      -0.022100
      8 C12         14.6160    -1.8830     1.5560 ca         1 IA3      -0.086300
      9 C13         14.3330    -1.2620     2.7900 ca         1 IA3      -0.100500
     10 C14         14.7100     0.0730     3.0170 ca         1 IA3      -0.099000
     11 C15         15.3650     0.7980     2.0090 ca         1 IA3       0.116000
     12 C17         15.6390     0.1930     0.7730 ca         1 IA3      -0.099000
     13 C18         15.2630    -1.1420     0.5450 ca         1 IA3      -0.100500
     14 C19         14.7490    -5.8390     1.4820 c6         1 IA3      -0.066400
     15 C20         15.7010    -6.9420     1.9980 c6         1 IA3       0.161300
     16 C23         16.7960    -7.8830     5.5420 ca         1 IA3      -0.122300
     17 C24         18.0090    -7.5980     6.2050 ca         1 IA3       0.172000
     18 C26         18.0660    -7.5710     7.6080 ca         1 IA3      -0.155000
     19 C27         16.9100    -7.8270     8.3650 ca         1 IA3      -0.082000
     20 C28         15.6980    -8.1100     7.7130 ca         1 IA3      -0.130000
     21 C29         15.6410    -8.1380     6.3090 ca         1 IA3      -0.065000
     22 C30         16.5280    -5.4630     3.7630 c6         1 IA3       0.161300
     23 C31         15.6680    -4.2860     3.2100 c6         1 IA3      -0.066400
     24 F25         19.1340    -7.3430     5.5000 f          1 IA3      -0.183000
     25 N21         15.9320    -6.7890     3.4540 n3         1 IA3      -0.716600
     26 O2          21.3310    -3.2030    -0.0410 os         1 IA3      -0.406100
     27 O4          20.6130    -3.2020     2.1380 o          1 IA3      -0.465000
     28 O6          18.8730    -3.8050    -0.9680 oh         1 IA3      -0.513100
     29 O9          16.3210    -4.1590    -0.5220 o          1 IA3      -0.594100
     30 Cl1         15.8370     2.4690     2.2940 cl         1 IA3      -0.207000
     31 H1          23.3270    -2.8020    -0.5220 h1         1 IA3       0.053700
     32 H2          22.7080    -1.9210     0.8900 h1         1 IA3       0.053700
     33 H3          23.0860    -3.6580     1.0160 h1         1 IA3       0.053700
     34 H4          18.0350    -3.7260     2.2420 ha         1 IA3       0.225000
     35 H5          13.3010    -3.5480     1.8900 hc         1 IA3       0.060200
     36 H6          13.9040    -3.4580     0.2670 hc         1 IA3       0.060200
     37 H7          13.8250    -1.8160     3.5770 ha         1 IA3       0.120500
     38 H8          14.4940     0.5450     3.9720 ha         1 IA3       0.133000
     39 H9          16.1410     0.7590    -0.0080 ha         1 IA3       0.133000
     40 H10         15.4740    -1.5980    -0.4190 ha         1 IA3       0.120500
     41 H11         13.7880    -5.9380     2.0050 hc         1 IA3       0.056450
     42 H12         14.5300    -6.0190     0.4210 hc         1 IA3       0.056450
     43 H13         15.2450    -7.9210     1.7880 h1         1 IA3       0.039950
     44 H14         16.6520    -6.9010     1.4450 h1         1 IA3       0.039950
     45 H15         16.2380    -8.8670     3.7350 h1         1 IA3       0.046200
     46 H16         17.7200    -7.9310     3.5860 h1         1 IA3       0.046200
     47 H17         19.0060    -7.3490     8.1060 ha         1 IA3       0.132000
     48 H18         16.9530    -7.8060     9.4520 ha         1 IA3       0.117000
     49 H19         14.8010    -8.3070     8.2960 ha         1 IA3       0.118000
     50 H20         14.6970    -8.3520     5.8110 ha         1 IA3       0.122000
     51 H21         17.5480    -5.4230     3.3620 h1         1 IA3       0.039950
     52 H22         16.6180    -5.3300     4.8510 h1         1 IA3       0.039950
     53 H23         16.1620    -3.3320     3.4340 hc         1 IA3       0.056450
     54 H24         14.7330    -4.2670     3.7880 hc         1 IA3       0.056450
     55 H26         17.9030    -3.9660    -1.1040 ho         1 IA3       0.521000
     56 C22         16.7110    -7.9170     4.0190 c3         1 IA3       0.216100
@<TRIPOS>BOND
     1     1    26 1   
     2     1    31 1   
     3     1    32 1   
     4     1    33 1   
     5     2     3 1   
     6     2    26 1   
     7     2    27 2   
     8     3     4 2   
     9     3    28 1   
    10     4     5 1   
    11     4    34 1   
    12     5     6 1   
    13     5    29 2   
    14     6     7 1   
    15     6    14 1   
    16     6    23 1   
    17     7     8 1   
    18     7    35 1   
    19     7    36 1   
    20     8     9 ar  
    21     8    13 ar  
    22     9    10 ar  
    23     9    37 1   
    24    10    11 ar  
    25    10    38 1   
    26    11    12 ar  
    27    11    30 1   
    28    12    13 ar  
    29    12    39 1   
    30    13    40 1   
    31    14    15 1   
    32    14    41 1   
    33    14    42 1   
    34    15    25 1   
    35    15    43 1   
    36    15    44 1   
    37    16    17 ar  
    38    16    21 ar  
    39    16    56 1   
    40    17    18 ar  
    41    17    24 1   
    42    18    19 ar  
    43    18    47 1   
    44    19    20 ar  
    45    19    48 1   
    46    20    21 ar  
    47    20    49 1   
    48    21    50 1   
    49    22    23 1   
    50    22    25 1   
    51    22    51 1   
    52    22    52 1   
    53    23    53 1   
    54    23    54 1   
    55    25    56 1   
    56    28    55 1   
    57    45    56 1   
    58    46    56 1   
@<TRIPOS>SUBSTRUCTURE
     1 IA3         1 TEMP              0 ****  ****    0 ROOT
