@<TRIPOS>MOLECULE
IA4
   52    54     1     0     0
SMALL
abcg2


@<TRIPOS>ATOM
      1 C01         19.0390    45.2610    41.3130 c3         1 IA4       0.153100
      2 C03         19.9150    43.0560    40.9540 c3         1 IA4       0.167800
      3 C04         20.3760    42.6920    42.3610 c3         1 IA4      -0.076400
      4 C05         21.4710    41.6200    42.4000 c3         1 IA4      -0.056700
      5 C06         21.6660    41.1250    43.8370 c3         1 IA4      -0.067400
      6 C07         22.4620    39.8240    43.9500 c3         1 IA4      -0.067900
      7 C08         23.9790    39.9790    44.0570 c3         1 IA4      -0.069400
      8 C09         24.5940    41.0630    43.1720 c3         1 IA4      -0.069400
      9 C10         23.9720    41.2060    41.7820 c3         1 IA4      -0.067900
     10 C11         22.7550    42.1290    41.7400 c3         1 IA4      -0.067400
     11 C12         18.0380    43.8540    39.6640 c3         1 IA4       0.170800
     12 C13         17.3240    42.5380    39.3790 c3         1 IA4       0.004800
     13 C14         16.2730    42.1560    40.3710 cc         1 IA4      -0.131400
     14 C15         15.7230    42.9100    41.3690 cd         1 IA4      -0.138100
     15 C17         14.6620    40.9530    41.4760 ca         1 IA4      -0.047200
     16 C18         15.6030    40.8890    40.4240 ca         1 IA4      -0.098800
     17 C19         15.7170    39.7060    39.6840 ca         1 IA4      -0.063000
     18 C20         14.9070    38.6340    40.0060 ca         1 IA4      -0.144000
     19 C21         13.9780    38.7190    41.0570 ca         1 IA4      -0.095000
     20 C22         13.8420    39.8740    41.8040 ca         1 IA4      -0.130000
     21 N02         18.7290    43.8970    40.9410 n3         1 IA4      -0.720600
     22 N16         14.7570    42.1960    42.0260 na         1 IA4      -0.229700
     23 H1          19.4890    45.2980    42.3040 h1         1 IA4       0.027700
     24 H2          19.7340    45.7550    40.6140 h1         1 IA4       0.027700
     25 H3          18.1250    45.8550    41.3480 h1         1 IA4       0.027700
     26 H4          19.6830    42.1220    40.4370 h1         1 IA4       0.030200
     27 H5          20.7310    43.5260    40.3800 h1         1 IA4       0.030200
     28 H6          20.7290    43.5770    42.9000 hc         1 IA4       0.045700
     29 H7          19.5010    42.3270    42.9080 hc         1 IA4       0.045700
     30 H8          21.1130    40.7600    41.8170 hc         1 IA4       0.043700
     31 H9          22.1210    41.9120    44.4500 hc         1 IA4       0.035700
     32 H10         20.6730    40.9580    44.2650 hc         1 IA4       0.035700
     33 H11         22.1170    39.2640    44.8240 hc         1 IA4       0.035700
     34 H12         22.2160    39.1940    43.0890 hc         1 IA4       0.035700
     35 H13         24.2500    40.1870    45.0960 hc         1 IA4       0.033950
     36 H14         24.4380    39.0140    43.8200 hc         1 IA4       0.033950
     37 H15         25.6630    40.8570    43.0750 hc         1 IA4       0.033950
     38 H16         24.5320    42.0320    43.6780 hc         1 IA4       0.033950
     39 H17         23.7230    40.2230    41.3680 hc         1 IA4       0.035700
     40 H18         24.7230    41.6260    41.1070 hc         1 IA4       0.035700
     41 H19         22.5410    42.3630    40.6930 hc         1 IA4       0.035700
     42 H20         23.0320    43.0820    42.2080 hc         1 IA4       0.035700
     43 H21         18.7200    44.0690    38.8230 h1         1 IA4       0.028200
     44 H22         17.2940    44.6560    39.6590 h1         1 IA4       0.028200
     45 H23         16.8750    42.6250    38.3840 hc         1 IA4       0.043700
     46 H24         18.0470    41.7210    39.2830 hc         1 IA4       0.043700
     47 H25         15.9540    43.9170    41.6770 h4         1 IA4       0.216000
     48 H26         16.4290    39.6300    38.8710 ha         1 IA4       0.110000
     49 H27         14.9850    37.7130    39.4430 ha         1 IA4       0.108000
     50 H28         13.3570    37.8630    41.2870 ha         1 IA4       0.107000
     51 H29         13.1260    39.9370    42.6140 ha         1 IA4       0.110000
     52 H31         14.2210    42.5330    42.8080 hn         1 IA4       0.347000
@<TRIPOS>BOND
     1     1    21 1   
     2     1    23 1   
     3     1    24 1   
     4     1    25 1   
     5     2     3 1   
     6     2    21 1   
     7     2    26 1   
     8     2    27 1   
     9     3     4 1   
    10     3    28 1   
    11     3    29 1   
    12     4     5 1   
    13     4    10 1   
    14     4    30 1   
    15     5     6 1   
    16     5    31 1   
    17     5    32 1   
    18     6     7 1   
    19     6    33 1   
    20     6    34 1   
    21     7     8 1   
    22     7    35 1   
    23     7    36 1   
    24     8     9 1   
    25     8    37 1   
    26     8    38 1   
    27     9    10 1   
    28     9    39 1   
    29     9    40 1   
    30    10    41 1   
    31    10    42 1   
    32    11    12 1   
    33    11    21 1   
    34    11    43 1   
    35    11    44 1   
    36    12    13 1   
    37    12    45 1   
    38    12    46 1   
    39    13    14 2   
    40    13    16 1   
    41    14    22 1   
    42    14    47 1   
    43    15    16 ar  
    44    15    20 ar  
    45    15    22 1   
    46    16    17 ar  
    47    17    18 ar  
    48    17    48 1   
    49    18    19 ar  
    50    18    49 1   
    51    19    20 ar  
    52    19    50 1   
    53    20    51 1   
    54    22    52 1   
@<TRIPOS>SUBSTRUCTURE
     1 IA4         1 TEMP              0 ****  ****    0 ROOT
