@<TRIPOS>MOLECULE
IA4
   52    54     1     0     0
SMALL
No Charge or Current Charge


@<TRIPOS>ATOM
      1 C01         19.0700    45.4110    41.3970 c3         1 IA4       0.153100
      2 C03         19.7970    43.0540    41.1160 c3         1 IA4       0.167800
      3 C04         20.4920    42.9460    42.4970 c3         1 IA4      -0.076400
      4 C05         21.4620    41.7360    42.6470 c3         1 IA4      -0.056700
      5 C06         21.9490    41.6260    44.1220 c3         1 IA4      -0.067400
      6 C07         22.6140    40.2760    44.4780 c3         1 IA4      -0.067900
      7 C08         24.1290    40.1700    44.1920 c3         1 IA4      -0.069400
      8 C09         24.6340    40.7990    42.8740 c3         1 IA4      -0.069400
      9 C10         23.6800    40.6780    41.6660 c3         1 IA4      -0.067900
     10 C11         22.6120    41.7970    41.6000 c3         1 IA4      -0.067400
     11 C12         17.9080    43.9790    39.7770 c3         1 IA4       0.170800
     12 C13         17.2530    42.6220    39.3950 c3         1 IA4       0.004800
     13 C14         16.2690    42.0560    40.3960 cc         1 IA4      -0.131400
     14 C15         15.8770    42.5840    41.6250 cd         1 IA4      -0.138100
     15 C17         14.7560    40.6700    41.3600 ca         1 IA4      -0.047200
     16 C18         15.5360    40.8300    40.2500 ca         1 IA4      -0.098800
     17 C19         15.5410    39.8910    39.2080 ca         1 IA4      -0.063000
     18 C20         14.7080    38.7590    39.3340 ca         1 IA4      -0.144000
     19 C21         13.8980    38.5920    40.4830 ca         1 IA4      -0.095000
     20 C22         13.9180    39.5570    41.5130 ca         1 IA4      -0.130000
     21 N02         18.6690    44.0240    41.0580 n3         1 IA4      -0.720600
     22 N16         14.9310    41.7250    42.2360 na         1 IA4      -0.229700
     23 H1          19.4670    45.4730    42.4170 h1         1 IA4       0.027700
     24 H2          19.8370    45.7770    40.7010 h1         1 IA4       0.027700
     25 H3          18.2070    46.0870    41.3410 h1         1 IA4       0.027700
     26 H4          19.4290    42.0490    40.8740 h1         1 IA4       0.030200
     27 H5          20.5460    43.3160    40.3570 h1         1 IA4       0.030200
     28 H6          21.0450    43.8700    42.7050 hc         1 IA4       0.045700
     29 H7          19.7090    42.8670    43.2610 hc         1 IA4       0.045700
     30 H8          20.8750    40.8340    42.4330 hc         1 IA4       0.043700
     31 H9          22.6240    42.4570    44.3640 hc         1 IA4       0.035700
     32 H10         21.0790    41.7390    44.7810 hc         1 IA4       0.035700
     33 H11         22.4640    40.0860    45.5480 hc         1 IA4       0.035700
     34 H12         22.0890    39.4660    43.9570 hc         1 IA4       0.035700
     35 H13         24.6800    40.6290    45.0220 hc         1 IA4       0.033950
     36 H14         24.4010    39.1070    44.2020 hc         1 IA4       0.033950
     37 H15         25.5890    40.3240    42.6180 hc         1 IA4       0.033950
     38 H16         24.8650    41.8580    43.0450 hc         1 IA4       0.033950
     39 H17         23.2030    39.6910    41.6480 hc         1 IA4       0.035700
     40 H18         24.2850    40.7440    40.7530 hc         1 IA4       0.035700
     41 H19         22.1730    41.7550    40.5960 hc         1 IA4       0.035700
     42 H20         23.1130    42.7710    41.6700 hc         1 IA4       0.035700
     43 H21         18.5700    44.2760    38.9520 h1         1 IA4       0.028200
     44 H22         17.1020    44.7240    39.8140 h1         1 IA4       0.028200
     45 H23         16.7330    42.7650    38.4400 hc         1 IA4       0.043700
     46 H24         18.0350    41.8820    39.1900 hc         1 IA4       0.043700
     47 H25         16.2090    43.5000    42.1060 h4         1 IA4       0.216000
     48 H26         16.1680    40.0290    38.3300 ha         1 IA4       0.110000
     49 H27         14.6880    38.0120    38.5440 ha         1 IA4       0.108000
     50 H28         13.2580    37.7170    40.5720 ha         1 IA4       0.107000
     51 H29         13.3000    39.4370    42.4000 ha         1 IA4       0.110000
     52 H31         14.4770    41.8550    43.1350 hn         1 IA4       0.347000
@<TRIPOS>BOND
     1     1    21 1   
     2     1    23 1   
     3     1    24 1   
     4     1    25 1   
     5     2     3 1   
     6     2    21 1   
     7     2    26 1   
     8     2    27 1   
     9     3     4 1   
    10     3    28 1   
    11     3    29 1   
    12     4     5 1   
    13     4    10 1   
    14     4    30 1   
    15     5     6 1   
    16     5    31 1   
    17     5    32 1   
    18     6     7 1   
    19     6    33 1   
    20     6    34 1   
    21     7     8 1   
    22     7    35 1   
    23     7    36 1   
    24     8     9 1   
    25     8    37 1   
    26     8    38 1   
    27     9    10 1   
    28     9    39 1   
    29     9    40 1   
    30    10    41 1   
    31    10    42 1   
    32    11    12 1   
    33    11    21 1   
    34    11    43 1   
    35    11    44 1   
    36    12    13 1   
    37    12    45 1   
    38    12    46 1   
    39    13    14 2   
    40    13    16 1   
    41    14    22 1   
    42    14    47 1   
    43    15    16 ar  
    44    15    20 ar  
    45    15    22 1   
    46    16    17 ar  
    47    17    18 ar  
    48    17    48 1   
    49    18    19 ar  
    50    18    49 1   
    51    19    20 ar  
    52    19    50 1   
    53    20    51 1   
    54    22    52 1   
@<TRIPOS>SUBSTRUCTURE
     1 IA4         1 TEMP              0 ****  ****    0 ROOT
