@<TRIPOS>MOLECULE
IA5
   56    58     1     0     0
SMALL
bcc


@<TRIPOS>ATOM
      1 C1           8.7260    16.7420    15.9840 c3         1 IA5       0.124700
      2 C3          10.5570    17.9580    15.1660 c          1 IA5       0.639300
      3 C5          11.7540    17.9020    14.2570 ce         1 IA5       0.155900
      4 C7          12.6070    18.9530    14.2080 cf         1 IA5      -0.380200
      5 C8          13.7990    18.8780    13.3850 c          1 IA5       0.602300
      6 C10         14.8330    19.9990    13.4160 c6         1 IA5      -0.123000
      7 C11         15.8460    19.6350    14.5380 c3         1 IA5      -0.023100
      8 C12         15.2510    19.4170    15.9010 ca         1 IA5      -0.084300
      9 C13         15.0060    20.4850    16.7600 ca         1 IA5      -0.116000
     10 C14         14.4110    20.2930    17.9990 ca         1 IA5      -0.119000
     11 C15         14.0660    19.0090    18.3890 ca         1 IA5       0.033400
     12 C17         14.3170    17.9230    17.5670 ca         1 IA5      -0.119000
     13 C18         14.9090    18.1370    16.3310 ca         1 IA5      -0.116000
     14 C19         15.5920    20.0650    12.0860 c6         1 IA5      -0.066400
     15 C20         14.7180    20.5550    10.9420 c6         1 IA5       0.162300
     16 C23         14.2340    22.6830     8.9330 ca         1 IA5      -0.085300
     17 C24         14.0070    22.0700     7.7060 ca         1 IA5      -0.101000
     18 C25         14.8180    22.3790     6.6220 ca         1 IA5      -0.019900
     19 C27         15.8540    23.2910     6.7300 ca         1 IA5      -0.100000
     20 C28         16.0750    23.8990     7.9600 ca         1 IA5      -0.133000
     21 C29         15.2780    23.5970     9.0520 ca         1 IA5      -0.093000
     22 C30         13.3600    21.8160    12.4550 c6         1 IA5       0.162300
     23 C31         14.2080    21.3790    13.6400 c6         1 IA5      -0.066400
     24 N21         14.1450    21.8570    11.2360 n3         1 IA5      -0.719600
     25 O2           9.8830    16.8310    15.1480 os         1 IA5      -0.383900
     26 O4          10.2810    18.9270    15.8240 o          1 IA5      -0.512000
     27 O6          11.8940    16.7900    13.5750 oh         1 IA5      -0.478100
     28 O9          14.0170    17.8660    12.7130 o          1 IA5      -0.592100
     29 BR1         14.5070    21.5200     4.9660 br         1 IA5      -0.102100
     30 CL1         13.3170    18.7580    19.9340 cl         1 IA5      -0.111400
     31 H1           8.3210    15.7480    15.8250 h1         1 IA5       0.053700
     32 H2           8.9910    16.8650    17.0340 h1         1 IA5       0.053700
     33 H3           7.9830    17.4890    15.7080 h1         1 IA5       0.053700
     34 H4          12.4050    19.8140    14.8230 ha         1 IA5       0.176000
     35 H5          16.3850    18.7370    14.2270 hc         1 IA5       0.060200
     36 H6          16.5800    20.4440    14.5810 hc         1 IA5       0.060200
     37 H7          15.2830    21.4890    16.4620 ha         1 IA5       0.135500
     38 H8          14.2250    21.1360    18.6510 ha         1 IA5       0.148000
     39 H9          14.0550    16.9210    17.8810 ha         1 IA5       0.148000
     40 H10         15.1010    17.2850    15.6900 ha         1 IA5       0.135500
     41 H11         16.0200    19.0960    11.8310 hc         1 IA5       0.057700
     42 H12         16.4280    20.7590    12.2110 hc         1 IA5       0.057700
     43 H13         13.9290    19.8150    10.7220 h1         1 IA5       0.039200
     44 H14         15.3300    20.6290    10.0410 h1         1 IA5       0.039200
     45 H15         12.8660    23.2790    10.4510 h1         1 IA5       0.041200
     46 H16         12.5690    21.6650     9.8200 h1         1 IA5       0.041200
     47 H17         13.2040    21.3500     7.6080 ha         1 IA5       0.145000
     48 H18         16.4830    23.5300     5.8830 ha         1 IA5       0.147000
     49 H19         16.8810    24.6140     8.0590 ha         1 IA5       0.135000
     50 H20         15.4670    24.0710    10.0070 ha         1 IA5       0.145000
     51 H21         12.9620    22.8150    12.6480 h1         1 IA5       0.039200
     52 H22         12.4860    21.1470    12.3550 h1         1 IA5       0.039200
     53 H23         15.0190    22.1010    13.7780 hc         1 IA5       0.057700
     54 H24         13.6070    21.4240    14.5490 hc         1 IA5       0.057700
     55 H26         12.7330    16.8940    13.0500 ho         1 IA5       0.486000
     56 C22         13.3670    22.3630    10.1230 c3         1 IA5       0.212100
@<TRIPOS>BOND
     1     1    25 1   
     2     1    31 1   
     3     1    32 1   
     4     1    33 1   
     5     2     3 1   
     6     2    25 1   
     7     2    26 2   
     8     3     4 2   
     9     3    27 1   
    10     4     5 1   
    11     4    34 1   
    12     5     6 1   
    13     5    28 2   
    14     6     7 1   
    15     6    14 1   
    16     6    23 1   
    17     7     8 1   
    18     7    35 1   
    19     7    36 1   
    20     8     9 ar  
    21     8    13 ar  
    22     9    10 ar  
    23     9    37 1   
    24    10    11 ar  
    25    10    38 1   
    26    11    12 ar  
    27    11    30 1   
    28    12    13 ar  
    29    12    39 1   
    30    13    40 1   
    31    14    15 1   
    32    14    41 1   
    33    14    42 1   
    34    15    24 1   
    35    15    43 1   
    36    15    44 1   
    37    16    17 ar  
    38    16    21 ar  
    39    16    56 1   
    40    17    18 ar  
    41    17    47 1   
    42    18    19 ar  
    43    18    29 1   
    44    19    20 ar  
    45    19    48 1   
    46    20    21 ar  
    47    20    49 1   
    48    21    50 1   
    49    22    23 1   
    50    22    24 1   
    51    22    51 1   
    52    22    52 1   
    53    23    53 1   
    54    23    54 1   
    55    24    56 1   
    56    27    55 1   
    57    45    56 1   
    58    46    56 1   
@<TRIPOS>SUBSTRUCTURE
     1 IA5         1 TEMP              0 ****  ****    0 ROOT
