@<TRIPOS>MOLECULE
IA5
   56    58     1     0     0
SMALL
No Charge or Current Charge


@<TRIPOS>ATOM
      1 C1           8.0490    16.8940    14.5220 c3         1 IA5       0.147900
      2 C3          10.1910    17.9870    14.2790 c          1 IA5       0.590300
      3 C5          11.6660    17.7760    13.9280 ce         1 IA5       0.155900
      4 C7          12.5860    18.7880    13.9300 cf         1 IA5      -0.430200
      5 C8          14.0370    18.6390    13.6130 c          1 IA5       0.602300
      6 C10         15.0180    19.8660    13.6190 c6         1 IA5      -0.123000
      7 C11         16.1500    19.5580    14.6650 c3         1 IA5      -0.023100
      8 C12         15.6730    19.4770    16.1150 ca         1 IA5      -0.084300
      9 C13         15.6870    20.6250    16.9340 ca         1 IA5      -0.098000
     10 C14         15.2430    20.5540    18.2660 ca         1 IA5      -0.101000
     11 C15         14.7890    19.3330    18.7900 ca         1 IA5       0.125000
     12 C17         14.7830    18.1820    17.9870 ca         1 IA5      -0.101000
     13 C18         15.2270    18.2530    16.6540 ca         1 IA5      -0.098000
     14 C19         15.6440    20.0210    12.1940 c6         1 IA5      -0.066400
     15 C20         14.6340    20.5130    11.1340 c6         1 IA5       0.162300
     16 C23         13.9790    22.6810     9.1310 ca         1 IA5      -0.085300
     17 C24         13.6240    21.9520     7.9780 ca         1 IA5      -0.083000
     18 C25         14.3050    22.1690     6.7680 ca         1 IA5      -0.019900
     19 C27         15.3430    23.1120     6.6980 ca         1 IA5      -0.082000
     20 C28         15.7020    23.8410     7.8450 ca         1 IA5      -0.115000
     21 C29         15.0220    23.6250     9.0570 ca         1 IA5      -0.075000
     22 C30         13.4340    21.8160    12.8200 c6         1 IA5       0.162300
     23 C31         14.3620    21.2600    13.9430 c6         1 IA5      -0.066400
     24 N21         14.1090    21.8530    11.5000 n3         1 IA5      -0.719600
     25 O2           9.4530    16.8250    14.2120 os         1 IA5      -0.407100
     26 O4           9.7130    19.0740    14.5870 o          1 IA5      -0.463000
     27 O6          12.0600    16.5120    13.6030 oh         1 IA5      -0.517100
     28 O9          14.4740    17.5030    13.4550 o          1 IA5      -0.592100
     29 Br1         13.8160    21.1730     5.2100 br         1 IA5      -0.102100
     30 Cl1         14.2340    19.2440    20.4570 cl         1 IA5      -0.203000
     31 H1           7.5890    15.9020    14.4300 h1         1 IA5       0.053700
     32 H2           7.8900    17.2470    15.5490 h1         1 IA5       0.053700
     33 H3           7.5290    17.5750    13.8350 h1         1 IA5       0.053700
     34 H4          12.2270    19.7680    14.2210 ha         1 IA5       0.226000
     35 H5          16.6650    18.6250    14.4000 hc         1 IA5       0.060200
     36 H6          16.9290    20.3280    14.5960 hc         1 IA5       0.060200
     37 H7          16.0380    21.5750    16.5370 ha         1 IA5       0.117500
     38 H8          15.2510    21.4430    18.8910 ha         1 IA5       0.130000
     39 H9          14.4370    17.2370    18.3960 ha         1 IA5       0.130000
     40 H10         15.2250    17.3530    16.0440 ha         1 IA5       0.117500
     41 H11         16.0770    19.0660    11.8650 hc         1 IA5       0.057700
     42 H12         16.4830    20.7310    12.2290 hc         1 IA5       0.057700
     43 H13         13.8140    19.7860    11.0340 h1         1 IA5       0.039200
     44 H14         15.1510    20.5530    10.1630 h1         1 IA5       0.039200
     45 H15         12.8650    23.4190    10.7940 h1         1 IA5       0.041200
     46 H16         12.3750    21.8080    10.2730 h1         1 IA5       0.041200
     47 H17         12.8230    21.2170     8.0210 ha         1 IA5       0.127000
     48 H18         15.8690    23.2780     5.7610 ha         1 IA5       0.129000
     49 H19         16.5070    24.5710     7.7960 ha         1 IA5       0.117000
     50 H20         15.3070    24.1870     9.9440 ha         1 IA5       0.127000
     51 H21         13.1170    22.8300    13.1070 h1         1 IA5       0.039200
     52 H22         12.5170    21.2180    12.7410 h1         1 IA5       0.039200
     53 H23         15.1590    21.9990    14.1020 hc         1 IA5       0.057700
     54 H24         13.8110    21.2260    14.8920 hc         1 IA5       0.057700
     55 H26         13.0410    16.5990    13.4740 ho         1 IA5       0.525000
     56 C22         13.2490    22.4490    10.4500 c3         1 IA5       0.212100
@<TRIPOS>BOND
     1     1    25 1   
     2     1    31 1   
     3     1    32 1   
     4     1    33 1   
     5     2     3 1   
     6     2    25 1   
     7     2    26 2   
     8     3     4 2   
     9     3    27 1   
    10     4     5 1   
    11     4    34 1   
    12     5     6 1   
    13     5    28 2   
    14     6     7 1   
    15     6    14 1   
    16     6    23 1   
    17     7     8 1   
    18     7    35 1   
    19     7    36 1   
    20     8     9 ar  
    21     8    13 ar  
    22     9    10 ar  
    23     9    37 1   
    24    10    11 ar  
    25    10    38 1   
    26    11    12 ar  
    27    11    30 1   
    28    12    13 ar  
    29    12    39 1   
    30    13    40 1   
    31    14    15 1   
    32    14    41 1   
    33    14    42 1   
    34    15    24 1   
    35    15    43 1   
    36    15    44 1   
    37    16    17 ar  
    38    16    21 ar  
    39    16    56 1   
    40    17    18 ar  
    41    17    47 1   
    42    18    19 ar  
    43    18    29 1   
    44    19    20 ar  
    45    19    48 1   
    46    20    21 ar  
    47    20    49 1   
    48    21    50 1   
    49    22    23 1   
    50    22    24 1   
    51    22    51 1   
    52    22    52 1   
    53    23    53 1   
    54    23    54 1   
    55    24    56 1   
    56    27    55 1   
    57    45    56 1   
    58    46    56 1   
@<TRIPOS>SUBSTRUCTURE
     1 IA5         1 TEMP              0 ****  ****    0 ROOT
