@<TRIPOS>MOLECULE
IA9
   48    50     1     0     0
SMALL
No Charge or Current Charge


@<TRIPOS>ATOM
      1 ClG         -3.8980     1.2600    -1.1360 cl         1 IA9      -0.164000
      2 CAX         -3.2940    -0.2160    -0.3590 ca         1 IA9       0.175000
      3 CAS         -4.1650    -1.3320    -0.2910 ca         1 IA9      -0.107300
      4 CAA         -5.5980    -1.2340    -0.8270 c3         1 IA9      -0.046800
      5 CAT         -3.6930    -2.5380     0.2670 ca         1 IA9       0.196000
      6 FAF         -4.4940    -3.6250     0.3460 f          1 IA9      -0.169000
      7 CAH         -2.3830    -2.6370     0.7460 ca         1 IA9      -0.156000
      8 CAJ         -1.5220    -1.5350     0.6820 ca         1 IA9      -0.061000
      9 CAW         -1.9610    -0.3040     0.1320 ca         1 IA9      -0.163600
     10 CAR         -1.0010     0.8730     0.0860 c          1 IA9       0.625700
     11 OAC         -1.3710     2.0390     0.1480 o          1 IA9      -0.547100
     12 NAQ          0.3360     0.5120     0.0410 ns         1 IA9      -0.143000
     13 CAV          1.5540     1.2490     0.0240 ca         1 IA9      -0.039000
     14 CAL          1.6150     2.6620     0.0130 ca         1 IA9      -0.065000
     15 CAU          2.8650     3.3280     0.0120 ca         1 IA9      -0.170200
     16 NBB          2.9300     4.8280     0.0000 no         1 IA9       0.694200
     17 OAE          1.8660     5.4600    -0.0110 o          1 IA9      -0.397000
     18 OAD          4.0460     5.3660     0.0010 o          1 IA9      -0.397000
     19 CAI          4.0530     2.5620     0.0220 ca         1 IA9      -0.053000
     20 CAK          3.9900     1.1600     0.0310 ca         1 IA9      -0.142000
     21 CAY          2.7520     0.4990     0.0300 ca         1 IA9       0.252000
     22 NBA          2.6990    -0.9150     0.0320 nh         1 IA9      -0.799400
     23 CAO          2.5340    -1.6490    -1.2610 c6         1 IA9       0.183300
     24 CAM          1.9910    -3.1000    -1.0480 c6         1 IA9       0.161800
     25 NAZ          2.8100    -3.8880    -0.0760 n3         1 IA9      -0.718600
     26 CAB          2.3120    -5.2690     0.1020 c3         1 IA9       0.153100
     27 CAN          2.9260    -3.1450     1.2170 c6         1 IA9       0.161800
     28 CAP          3.4850    -1.6960     1.0350 c6         1 IA9       0.183300
     29 H1          -5.6020    -1.0380    -1.9060 hc         1 IA9       0.059033
     30 H2          -6.1780    -2.1500    -0.6670 hc         1 IA9       0.059033
     31 H3          -6.1480    -0.4220    -0.3360 hc         1 IA9       0.059033
     32 H4          -2.0370    -3.5740     1.1750 ha         1 IA9       0.140000
     33 H5          -0.5180    -1.6480     1.0880 ha         1 IA9       0.125000
     34 H6           0.4930    -0.4870     0.0150 hn         1 IA9       0.180000
     35 H7           0.7020     3.2500     0.0050 ha         1 IA9       0.183000
     36 H8           5.0300     3.0450     0.0210 ha         1 IA9       0.153000
     37 H9           4.9100     0.5830     0.0300 ha         1 IA9       0.129000
     38 H10          1.8410    -1.1090    -1.9220 h1         1 IA9       0.050700
     39 H11          3.5020    -1.7060    -1.7800 h1         1 IA9       0.050700
     40 H12          0.9510    -3.0320    -0.6950 h1         1 IA9       0.040700
     41 H13          1.9640    -3.6080    -2.0230 h1         1 IA9       0.040700
     42 H15          2.2880    -5.7990    -0.8600 h1         1 IA9       0.034367
     43 H16          2.9650    -5.8320     0.7820 h1         1 IA9       0.034367
     44 H17          1.2960    -5.2690     0.5200 h1         1 IA9       0.034367
     45 H18          1.9400    -3.0760     1.7000 h1         1 IA9       0.040700
     46 H19          3.5840    -3.6880     1.9110 h1         1 IA9       0.040700
     47 H20          4.5360    -1.7620     0.7190 h1         1 IA9       0.050700
     48 H21          3.4670    -1.1890     2.0110 h1         1 IA9       0.050700
@<TRIPOS>BOND
     1     1     2 1   
     2     2     3 ar  
     3     2     9 ar  
     4     3     4 1   
     5     3     5 ar  
     6     4    29 1   
     7     4    30 1   
     8     4    31 1   
     9     5     6 1   
    10     5     7 ar  
    11     7     8 ar  
    12     7    32 1   
    13     8     9 ar  
    14     8    33 1   
    15     9    10 1   
    16    10    11 2   
    17    10    12 1   
    18    12    13 1   
    19    12    34 1   
    20    13    14 ar  
    21    13    21 ar  
    22    14    15 ar  
    23    14    35 1   
    24    15    16 1   
    25    15    19 ar  
    26    16    17 1   
    27    16    18 1   
    28    19    20 ar  
    29    19    36 1   
    30    20    21 ar  
    31    20    37 1   
    32    21    22 1   
    33    22    23 1   
    34    22    28 1   
    35    23    24 1   
    36    23    38 1   
    37    23    39 1   
    38    24    25 1   
    39    24    40 1   
    40    24    41 1   
    41    25    26 1   
    42    25    27 1   
    43    26    42 1   
    44    26    43 1   
    45    26    44 1   
    46    27    28 1   
    47    27    45 1   
    48    27    46 1   
    49    28    47 1   
    50    28    48 1   
@<TRIPOS>SUBSTRUCTURE
     1 IA9         1 TEMP              0 ****  ****    0 ROOT
