@<TRIPOS>MOLECULE
IA9
   48    50     1     0     0
SMALL
bcc


@<TRIPOS>ATOM
      1 CLG         -3.4200     1.2030    -0.9630 cl         1 IA9      -0.072400
      2 CAX         -3.1180    -0.2170    -0.0230 ca         1 IA9       0.083400
      3 CAS         -4.0980    -1.2080     0.0020 ca         1 IA9      -0.107300
      4 CAA         -5.3940    -1.0630    -0.7330 c3         1 IA9      -0.046800
      5 CAT         -3.7930    -2.3400     0.7480 ca         1 IA9       0.160900
      6 FAF         -4.6990    -3.3230     0.8130 f          1 IA9      -0.133900
      7 CAH         -2.6030    -2.5140     1.4250 ca         1 IA9      -0.174000
      8 CAJ         -1.6560    -1.5080     1.3630 ca         1 IA9      -0.079000
      9 CAW         -1.9030    -0.3450     0.6420 ca         1 IA9      -0.163600
     10 CAR         -0.8930     0.7610     0.6490 c          1 IA9       0.692700
     11 OAC         -1.1420     1.8600     1.1030 o          1 IA9      -0.547100
     12 NAQ          0.3010     0.3900     0.1320 ns         1 IA9      -0.469100
     13 CAV          1.4700     1.1370    -0.0020 ca         1 IA9       0.053600
     14 CAL          1.5130     2.5190     0.0740 ca         1 IA9      -0.083000
     15 CAU          2.7160     3.1660    -0.1810 ca         1 IA9      -0.170200
     16 NBB          2.7560     4.6140    -0.0950 no         1 IA9       0.314200
     17 OAE          1.7510     5.1950     0.2460 o          1 IA9      -0.207000
     18 OAD          3.7930     5.1730    -0.3680 o          1 IA9      -0.207000
     19 CAI          3.8650     2.4780    -0.5300 ca         1 IA9      -0.071000
     20 CAK          3.8140     1.0970    -0.5850 ca         1 IA9      -0.160000
     21 CAY          2.6420     0.4050    -0.3000 ca         1 IA9       0.113600
     22 NBA          2.5490    -0.9890    -0.3280 nh         1 IA9      -0.661000
     23 CAO          3.4610    -1.7070    -1.2040 c6         1 IA9       0.183300
     24 CAM          2.9890    -3.1420    -1.3430 c6         1 IA9       0.161800
     25 NAZ          2.9200    -3.7870    -0.0480 n3         1 IA9      -0.718600
     26 CAB          2.5580    -5.1810    -0.1550 c3         1 IA9       0.153100
     27 CAN          2.0290    -3.0660     0.8350 c6         1 IA9       0.161800
     28 CAP          2.4770    -1.6270     0.9870 c6         1 IA9       0.183300
     29 H1          -5.2230    -0.9500    -1.8040 hc         1 IA9       0.059033
     30 H2          -6.0420    -1.9230    -0.5910 hc         1 IA9       0.059033
     31 H3          -5.9350    -0.1790    -0.3950 hc         1 IA9       0.059033
     32 H4          -2.4230    -3.4160     1.9930 ha         1 IA9       0.158000
     33 H5          -0.7250    -1.6230     1.9040 ha         1 IA9       0.143000
     34 H6           0.3730    -0.5390    -0.2680 hn         1 IA9       0.346500
     35 H7           0.6230     3.0830     0.2990 ha         1 IA9       0.201000
     36 H8           4.7920     2.9910    -0.7380 ha         1 IA9       0.171000
     37 H9           4.7140     0.5520    -0.8350 ha         1 IA9       0.147000
     38 H10          3.4680    -1.2310    -2.1850 h1         1 IA9       0.050700
     39 H11          4.4890    -1.7010    -0.8180 h1         1 IA9       0.050700
     40 H12          2.0150    -3.1510    -1.8630 h1         1 IA9       0.040700
     41 H13          3.6960    -3.6840    -1.9750 h1         1 IA9       0.040700
     42 H15          3.2670    -5.7020    -0.8000 h1         1 IA9       0.034367
     43 H16          2.5930    -5.6530     0.8290 h1         1 IA9       0.034367
     44 H17          1.5490    -5.3400    -0.5660 h1         1 IA9       0.034367
     45 H18          0.9860    -3.0860     0.4680 h1         1 IA9       0.040700
     46 H19          2.0310    -3.5420     1.8180 h1         1 IA9       0.040700
     47 H20          3.4570    -1.5940     1.4830 h1         1 IA9       0.050700
     48 H21          1.7770    -1.0910     1.6290 h1         1 IA9       0.050700
@<TRIPOS>BOND
     1     1     2 1   
     2     2     3 ar  
     3     2     9 ar  
     4     3     4 1   
     5     3     5 ar  
     6     4    29 1   
     7     4    30 1   
     8     4    31 1   
     9     5     6 1   
    10     5     7 ar  
    11     7     8 ar  
    12     7    32 1   
    13     8     9 ar  
    14     8    33 1   
    15     9    10 1   
    16    10    11 2   
    17    10    12 1   
    18    12    13 1   
    19    12    34 1   
    20    13    14 ar  
    21    13    21 ar  
    22    14    15 ar  
    23    14    35 1   
    24    15    16 1   
    25    15    19 ar  
    26    16    17 1   
    27    16    18 1   
    28    19    20 ar  
    29    19    36 1   
    30    20    21 ar  
    31    20    37 1   
    32    21    22 1   
    33    22    23 1   
    34    22    28 1   
    35    23    24 1   
    36    23    38 1   
    37    23    39 1   
    38    24    25 1   
    39    24    40 1   
    40    24    41 1   
    41    25    26 1   
    42    25    27 1   
    43    26    42 1   
    44    26    43 1   
    45    26    44 1   
    46    27    28 1   
    47    27    45 1   
    48    27    46 1   
    49    28    47 1   
    50    28    48 1   
@<TRIPOS>SUBSTRUCTURE
     1 IA9         1 TEMP              0 ****  ****    0 ROOT
