@<TRIPOS>MOLECULE
IAA
   37    40     1     0     0
SMALL
abcg2


@<TRIPOS>ATOM
      1 O4          29.8160     3.8490    49.5270 o          1 IAA      -0.715500
      2 C18         30.2810     2.7090    49.7440 c          1 IAA       0.722000
      3 O3          31.4230     2.2760    49.4520 o          1 IAA      -0.715500
      4 C17         29.4030     1.6670    50.4570 c3         1 IAA       0.008600
      5 O2          28.1000     2.2020    50.7510 os         1 IAA      -0.269000
      6 N3          27.3760     1.3040    51.4840 n2         1 IAA      -0.286700
      7 C10         26.1960     1.7310    51.7640 cc         1 IAA       0.390900
      8 C9          25.1800     0.9600    52.5400 cc         1 IAA       0.139000
      9 C8          25.2530    -0.2780    53.1210 cd         1 IAA      -0.157200
     10 C7          24.0880    -0.9400    53.8240 c          1 IAA       0.682700
     11 O1          22.9470    -0.5420    53.9670 o          1 IAA      -0.484100
     12 N1          24.5030    -2.1950    54.3310 nc         1 IAA      -0.655100
     13 C1          25.7520    -2.3540    54.0090 cd         1 IAA       0.502600
     14 C2          26.5560    -3.5530    54.3690 c6         1 IAA      -0.095500
     15 C3          27.9650    -3.5190    53.8850 c2         1 IAA      -0.211200
     16 C4          28.4480    -2.4760    53.1920 ce         1 IAA      -0.183000
     17 C5          27.6350    -1.3250    52.8670 ce         1 IAA      -0.095000
     18 C6          26.3310    -1.2460    53.2510 cd         1 IAA      -0.195600
     19 N2          24.0140     1.7330    52.6120 nc         1 IAA      -0.568300
     20 C11         24.2180     2.8610    51.9890 cd         1 IAA       0.476600
     21 C16         23.2250     3.9620    51.8620 c6         1 IAA      -0.086500
     22 C15         23.7140     5.1180    51.0490 c2         1 IAA      -0.209200
     23 C14         24.9510     5.1680    50.5270 cf         1 IAA      -0.190000
     24 C13         25.8990     4.0890    50.7090 cf         1 IAA      -0.059000
     25 C12         25.5370     2.9850    51.4110 cc         1 IAA      -0.321200
     26 H171        29.8850     1.3670    51.3890 h1         1 IAA       0.027200
     27 H172        29.2920     0.7870    49.8200 h1         1 IAA       0.027200
     28 H21         26.0490    -4.4500    53.9930 hc         1 IAA       0.078700
     29 H22         26.5390    -3.6750    55.4600 hc         1 IAA       0.078700
     30 H3          28.5900    -4.3730    54.1150 ha         1 IAA       0.177000
     31 H4          29.4760    -2.4760    52.8520 ha         1 IAA       0.189000
     32 H5          28.0810    -0.5220    52.3040 ha         1 IAA       0.231000
     33 H161        22.9500     4.3170    52.8650 hc         1 IAA       0.078200
     34 H162        22.2850     3.5760    51.4480 hc         1 IAA       0.078200
     35 H15         23.0230     5.9380    50.9000 ha         1 IAA       0.173000
     36 H14         25.2660     6.0290    49.9520 ha         1 IAA       0.187000
     37 H13         26.8840     4.1750    50.2760 ha         1 IAA       0.246000
@<TRIPOS>BOND
     1     1     2 1   
     2     2     3 1   
     3     2     4 1   
     4     4     5 1   
     5     4    26 1   
     6     4    27 1   
     7     5     6 1   
     8     6     7 2   
     9     7     8 1   
    10     7    25 1   
    11     8     9 2   
    12     8    19 1   
    13     9    10 1   
    14     9    18 1   
    15    10    11 2   
    16    10    12 1   
    17    12    13 2   
    18    13    14 1   
    19    13    18 1   
    20    14    15 1   
    21    14    28 1   
    22    14    29 1   
    23    15    16 2   
    24    15    30 1   
    25    16    17 1   
    26    16    31 1   
    27    17    18 2   
    28    17    32 1   
    29    19    20 2   
    30    20    21 1   
    31    20    25 1   
    32    21    22 1   
    33    21    33 1   
    34    21    34 1   
    35    22    23 2   
    36    22    35 1   
    37    23    24 1   
    38    23    36 1   
    39    24    25 2   
    40    24    37 1   
@<TRIPOS>SUBSTRUCTURE
     1 IAA         1 TEMP              0 ****  ****    0 ROOT
