@<TRIPOS>MOLECULE
IAA
   37    40     1     0     0
SMALL
No Charge or Current Charge


@<TRIPOS>ATOM
      1 O4          29.9060     3.4910    49.0550 o          1 IAA      -0.715500
      2 C18         30.2350     2.3360    49.3000 c          1 IAA       0.722000
      3 O3          31.2900     1.8490    48.9130 o          1 IAA      -0.715500
      4 C17         29.2890     1.4270    50.1400 c3         1 IAA       0.008600
      5 O2          28.0720     2.0950    50.5450 os         1 IAA      -0.269000
      6 N3          27.2680     1.2190    51.2980 n2         1 IAA      -0.286700
      7 C10         26.1290     1.6720    51.7460 cc         1 IAA       0.390900
      8 C9          25.1230     0.9510    52.4910 cc         1 IAA       0.139000
      9 C8          25.1500    -0.3540    52.9920 cd         1 IAA      -0.157200
     10 C7          23.9580    -1.1760    53.3110 c          1 IAA       0.682700
     11 O1          22.7740    -0.8910    53.2140 o          1 IAA      -0.484100
     12 N1          24.4250    -2.4060    53.7180 nc         1 IAA      -0.655100
     13 C1          25.7470    -2.4260    53.7130 cd         1 IAA       0.502600
     14 C2          26.6000    -3.5930    54.1630 c6         1 IAA      -0.095500
     15 C3          28.0900    -3.2350    54.1970 c2         1 IAA      -0.211200
     16 C4          28.5500    -2.0110    53.8450 ce         1 IAA      -0.183000
     17 C5          27.6480    -0.9410    53.3990 ce         1 IAA      -0.095000
     18 C6          26.2930    -1.1700    53.3060 cd         1 IAA      -0.195600
     19 N2          23.9800     1.7040    52.6430 nc         1 IAA      -0.568300
     20 C11         24.2730     2.8690    52.0750 cd         1 IAA       0.476600
     21 C16         23.2610     4.0050    52.0480 c6         1 IAA      -0.086500
     22 C15         23.7870     5.2440    51.3260 c2         1 IAA      -0.209200
     23 C14         25.0260     5.2670    50.7900 cf         1 IAA      -0.190000
     24 C13         25.9010     4.1090    50.8840 cf         1 IAA      -0.059000
     25 C12         25.5290     2.9480    51.5140 cc         1 IAA      -0.321200
     26 H171        29.8500     1.0900    51.0210 h1         1 IAA       0.027200
     27 H172        29.0530     0.5440    49.5310 h1         1 IAA       0.027200
     28 H21         26.4420    -4.4450    53.4890 hc         1 IAA       0.078700
     29 H22         26.2800    -3.9220    55.1600 hc         1 IAA       0.078700
     30 H3          28.7770    -4.0180    54.5280 ha         1 IAA       0.177000
     31 H4          29.6180    -1.7790    53.8880 ha         1 IAA       0.189000
     32 H5          28.0650     0.0500    53.2310 ha         1 IAA       0.231000
     33 H161        22.9830     4.2730    53.0750 hc         1 IAA       0.078200
     34 H162        22.3390     3.6640    51.5590 hc         1 IAA       0.078200
     35 H15         23.1290     6.1140    51.2560 ha         1 IAA       0.173000
     36 H14         25.3960     6.1570    50.2740 ha         1 IAA       0.187000
     37 H13         26.8940     4.1700    50.4300 ha         1 IAA       0.246000
@<TRIPOS>BOND
     1     1     2 1   
     2     2     3 1   
     3     2     4 1   
     4     4     5 1   
     5     4    26 1   
     6     4    27 1   
     7     5     6 1   
     8     6     7 2   
     9     7     8 1   
    10     7    25 1   
    11     8     9 2   
    12     8    19 1   
    13     9    10 1   
    14     9    18 1   
    15    10    11 2   
    16    10    12 1   
    17    12    13 2   
    18    13    14 1   
    19    13    18 1   
    20    14    15 1   
    21    14    28 1   
    22    14    29 1   
    23    15    16 2   
    24    15    30 1   
    25    16    17 1   
    26    16    31 1   
    27    17    18 2   
    28    17    32 1   
    29    19    20 2   
    30    20    21 1   
    31    20    25 1   
    32    21    22 1   
    33    21    33 1   
    34    21    34 1   
    35    22    23 2   
    36    22    35 1   
    37    23    24 1   
    38    23    36 1   
    39    24    25 2   
    40    24    37 1   
@<TRIPOS>SUBSTRUCTURE
     1 IAA         1 TEMP              0 ****  ****    0 ROOT
