@<TRIPOS>MOLECULE
IAB
   87    90     1     0     0
SMALL
abcg2


@<TRIPOS>ATOM
      1 C1X          4.1480     2.5420    -1.7360 c6         1 IAB       0.368300
      2 C2X          3.5740     3.7630    -1.0250 c6         1 IAB       0.118300
      3 C3X          2.4470     3.3250    -0.0920 c6         1 IAB       0.144300
      4 C4X          1.4020     2.4920    -0.8370 c6         1 IAB       0.159300
      5 C5X          2.0240     1.4750    -1.8120 c6         1 IAB       0.163300
      6 C6X          1.0060     1.0440    -2.8480 c3         1 IAB       0.171600
      7 O1X          4.6200     1.6890    -0.7480 os         1 IAB      -0.478000
      8 O2X          4.5260     4.4440    -0.2460 oh         1 IAB      -0.711000
      9 O3X          1.8030     4.4570     0.4560 oh         1 IAB      -0.731000
     10 O4X          0.6450     1.6730     0.0370 os         1 IAB      -0.479000
     11 O5X          3.1390     1.9830    -2.5250 os         1 IAB      -0.464000
     12 O6X          1.5420    -0.0130    -3.6050 oh         1 IAB      -0.707000
     13 C1Y         -0.2820     2.2360     0.9060 c6         1 IAB       0.362300
     14 C2Y         -0.6440     1.1630     1.9330 c6         1 IAB       0.115300
     15 C3Y         -1.3780     0.0120     1.2600 c6         1 IAB       0.179300
     16 C4Y         -2.5900     0.5290     0.4840 c6         1 IAB       0.166500
     17 C5Y         -2.1940     1.6950    -0.4340 c6         1 IAB       0.157300
     18 C6Y         -3.3960     2.4230    -1.0080 c3         1 IAB      -0.096100
     19 O2Y          0.4910     0.6340     2.5850 oh         1 IAB      -0.734000
     20 O3Y         -1.8360    -0.9220     2.2100 oh         1 IAB      -0.657000
     21 N4Y         -3.1630    -0.5550    -0.2970 n7         1 IAB      -0.877400
     22 O5Y         -1.4390     2.6790     0.2590 os         1 IAB      -0.470000
     23 C1Z         -4.3300    -1.2200     0.2610 c6         1 IAB       0.226700
     24 C2Z         -4.4870    -2.5920    -0.3820 c6         1 IAB       0.193300
     25 O2Z         -4.4700    -2.4160    -1.7790 oh         1 IAB      -0.708000
     26 C3Z         -5.7920    -3.2370     0.0760 c6         1 IAB       0.105300
     27 O3Z         -5.6980    -3.3760     1.4750 oh         1 IAB      -0.642000
     28 C4Z         -7.0180    -2.4000    -0.3200 c6         1 IAB       0.182500
     29 O4Z         -7.4120    -2.6300    -1.6600 oh         1 IAB      -0.705000
     30 C5Z         -6.7950    -0.9230    -0.1420 c2         1 IAB      -0.125400
     31 C6Z         -5.5970    -0.4140     0.1340 c2         1 IAB      -0.194200
     32 C7Z         -8.0340    -0.0890    -0.2880 c3         1 IAB       0.205800
     33 O7Z         -7.7740     1.2620    -0.0050 oh         1 IAB      -0.661000
     34 C1W          3.3970    -1.3950     1.4230 c6         1 IAB       0.375300
     35 C2W          4.0130    -2.7920     1.3510 c6         1 IAB       0.112300
     36 C3W          5.5090    -2.6800     1.0820 c6         1 IAB       0.138300
     37 C4W          5.7840    -1.8050    -0.1400 c6         1 IAB       0.146300
     38 C5W          5.0710    -0.4680     0.0460 c6         1 IAB       0.178300
     39 C6W          5.2090     0.4680    -1.1400 c3         1 IAB       0.172600
     40 O2W          3.8470    -3.5000     2.5540 oh         1 IAB      -0.727000
     41 O3W          6.0990    -3.9360     0.8420 oh         1 IAB      -0.726000
     42 O4W          7.1580    -1.5560    -0.2960 oh         1 IAB      -0.719000
     43 O5W          3.6960    -0.7050     0.2340 os         1 IAB      -0.480000
     44 H1X          4.9420     2.8230    -2.4420 h2         1 IAB       0.067700
     45 H2X          3.1530     4.4190    -1.8000 h1         1 IAB       0.057700
     46 H3X          2.8710     2.6960     0.7020 h1         1 IAB       0.073700
     47 H4X          0.7520     3.1860    -1.3930 h1         1 IAB       0.062700
     48 H5X          2.3200     0.6040    -1.2210 h1         1 IAB       0.101700
     49 H6X1         0.0930     0.7390    -2.3260 h1         1 IAB       0.028700
     50 H6X2         0.7470     1.9080    -3.4770 h1         1 IAB       0.028700
     51 H5           5.0460     5.0120    -0.8220 ho         1 IAB       0.509000
     52 H4           2.4560     4.9490     0.9660 ho         1 IAB       0.520000
     53 H6X          0.8800    -0.2830    -4.2460 ho         1 IAB       0.502000
     54 H1Y          0.1170     3.1200     1.4110 h2         1 IAB       0.087700
     55 H2Y         -1.3180     1.6290     2.6650 h1         1 IAB       0.059700
     56 H3Y         -0.7020    -0.4710     0.5400 h1         1 IAB       0.074700
     57 H1          -3.3100     0.9270     1.2170 h1         1 IAB       0.052700
     58 H5Y         -1.6030     1.2870    -1.2650 h1         1 IAB       0.048700
     59 H6Y1        -3.0750     3.2260    -1.6710 hc         1 IAB       0.048700
     60 H6Y2        -4.0290     1.7560    -1.5920 hc         1 IAB       0.048700
     61 H6Y3        -4.0080     2.8550    -0.2140 hc         1 IAB       0.048700
     62 H3           0.8900     1.3080     3.1450 ho         1 IAB       0.515000
     63 H2          -1.0730    -1.3350     2.6260 ho         1 IAB       0.456000
     64 H4Y         -3.3540    -0.2700    -1.2470 hn         1 IAB       0.437000
     65 H1Z         -4.1230    -1.3830     1.3200 h1         1 IAB       0.104700
     66 H2Z         -3.6470    -3.2240    -0.0580 h1         1 IAB       0.063700
     67 H10         -4.7860    -3.2200    -2.2020 ho         1 IAB       0.503000
     68 H3Z         -5.8910    -4.2260    -0.4020 h1         1 IAB       0.026700
     69 H11         -6.4940    -3.8120     1.7950 ho         1 IAB       0.442000
     70 H4Z         -7.8380    -2.6950     0.3550 h1         1 IAB       0.023700
     71 H12         -7.8550    -3.4830    -1.7000 ho         1 IAB       0.495000
     72 H6Z         -5.4990     0.6550     0.2890 ha         1 IAB       0.193000
     73 H7Z1        -8.4210    -0.2170    -1.3070 h1         1 IAB       0.026200
     74 H7Z2        -8.8070    -0.5000     0.3790 h1         1 IAB       0.026200
     75 H7Z         -8.5420     1.7730    -0.2720 ho         1 IAB       0.445000
     76 H1W          3.8320    -0.8450     2.2780 h2         1 IAB       0.023700
     77 H2W          3.5430    -3.3210     0.5060 h1         1 IAB       0.068700
     78 H3W          5.9790    -2.1910     1.9500 h1         1 IAB       0.049700
     79 H4W          5.3660    -2.3020    -1.0300 h1         1 IAB       0.060700
     80 H5W          5.4970     0.0310     0.9330 h1         1 IAB       0.055700
     81 H6W1         4.7110     0.0330    -2.0130 h1         1 IAB       0.057200
     82 H6W2         6.2650     0.6100    -1.3920 h1         1 IAB       0.057200
     83 H7           2.9150    -3.7230     2.6480 ho         1 IAB       0.524000
     84 H8           6.1320    -4.4240     1.6700 ho         1 IAB       0.523000
     85 H9           7.6060    -2.4010    -0.4040 ho         1 IAB       0.524000
     86 O1W          2.0320    -1.5180     1.5320 oh         1 IAB      -0.725000
     87 H6           1.6310    -0.6750     1.8060 ho         1 IAB       0.553000
@<TRIPOS>BOND
     1     1     2 1   
     2     1     7 1   
     3     1    11 1   
     4     1    44 1   
     5     2     3 1   
     6     2     8 1   
     7     2    45 1   
     8     3     4 1   
     9     3     9 1   
    10     3    46 1   
    11     4     5 1   
    12     4    10 1   
    13     4    47 1   
    14     5     6 1   
    15     5    11 1   
    16     5    48 1   
    17     6    12 1   
    18     6    49 1   
    19     6    50 1   
    20     7    39 1   
    21     8    51 1   
    22     9    52 1   
    23    10    13 1   
    24    12    53 1   
    25    13    14 1   
    26    13    22 1   
    27    13    54 1   
    28    14    15 1   
    29    14    19 1   
    30    14    55 1   
    31    15    16 1   
    32    15    20 1   
    33    15    56 1   
    34    16    17 1   
    35    16    21 1   
    36    16    57 1   
    37    17    18 1   
    38    17    22 1   
    39    17    58 1   
    40    18    59 1   
    41    18    60 1   
    42    18    61 1   
    43    19    62 1   
    44    20    63 1   
    45    21    23 1   
    46    21    64 1   
    47    23    24 1   
    48    23    31 1   
    49    23    65 1   
    50    24    25 1   
    51    24    26 1   
    52    24    66 1   
    53    25    67 1   
    54    26    27 1   
    55    26    28 1   
    56    26    68 1   
    57    27    69 1   
    58    28    29 1   
    59    28    30 1   
    60    28    70 1   
    61    29    71 1   
    62    30    31 2   
    63    30    32 1   
    64    31    72 1   
    65    32    33 1   
    66    32    73 1   
    67    32    74 1   
    68    33    75 1   
    69    34    35 1   
    70    34    43 1   
    71    34    76 1   
    72    34    86 1   
    73    35    36 1   
    74    35    40 1   
    75    35    77 1   
    76    36    37 1   
    77    36    41 1   
    78    36    78 1   
    79    37    38 1   
    80    37    42 1   
    81    37    79 1   
    82    38    39 1   
    83    38    43 1   
    84    38    80 1   
    85    39    81 1   
    86    39    82 1   
    87    40    83 1   
    88    41    84 1   
    89    42    85 1   
    90    86    87 1   
@<TRIPOS>SUBSTRUCTURE
     1 IAB         1 TEMP              0 ****  ****    0 ROOT
