@<TRIPOS>MOLECULE
IAB
   87    90     1     0     0
SMALL
No Charge or Current Charge


@<TRIPOS>ATOM
      1 C1X          4.4390     2.8500    -1.5660 c6         1 IAB       0.368300
      2 C2X          3.6650     4.0440    -0.9220 c6         1 IAB       0.118300
      3 C3X          2.4250     3.4640    -0.1770 c6         1 IAB       0.144300
      4 C4X          1.5150     2.5640    -1.0980 c6         1 IAB       0.159300
      5 C5X          2.3710     1.6200    -2.0020 c6         1 IAB       0.163300
      6 C6X          1.5340     1.0340    -3.1850 c3         1 IAB       0.171600
      7 O1X          4.7910     1.8980    -0.5380 os         1 IAB      -0.478000
      8 O2X          4.4540     4.8160     0.0240 oh         1 IAB      -0.711000
      9 O3X          1.7190     4.5680     0.4230 oh         1 IAB      -0.731000
     10 O4X          0.6750     1.6680    -0.3240 os         1 IAB      -0.479000
     11 O5X          3.5660     2.2480    -2.5420 os         1 IAB      -0.464000
     12 O6X          2.2860     0.1430    -4.0350 oh         1 IAB      -0.707000
     13 C1Y         -0.3350     2.2120     0.5420 c6         1 IAB       0.362300
     14 C2Y         -0.7000     1.1580     1.6410 c6         1 IAB       0.115300
     15 C3Y         -1.4260    -0.0600     0.9980 c6         1 IAB       0.179300
     16 C4Y         -2.6550     0.4010     0.1290 c6         1 IAB       0.166500
     17 C5Y         -2.1550     1.4710    -0.9010 c6         1 IAB       0.157300
     18 C6Y         -3.3050     2.1040    -1.7290 c3         1 IAB      -0.096100
     19 O2Y          0.4730     0.6970     2.3790 oh         1 IAB      -0.734000
     20 O3Y         -1.7930    -0.9710     2.0540 oh         1 IAB      -0.657000
     21 N4Y         -3.3370    -0.7370    -0.5800 n7         1 IAB      -0.877400
     22 O5Y         -1.5000     2.5710    -0.2300 os         1 IAB      -0.470000
     23 C1Z         -4.4000    -1.4520     0.1830 c6         1 IAB       0.226700
     24 C2Z         -4.7460    -2.8450    -0.4660 c6         1 IAB       0.193300
     25 O2Z         -4.9380    -2.7400    -1.8960 oh         1 IAB      -0.708000
     26 C3Z         -6.0430    -3.4230     0.1860 c6         1 IAB       0.105300
     27 O3Z         -5.8650    -3.6060     1.6060 oh         1 IAB      -0.642000
     28 C4Z         -7.2470    -2.4650    -0.1200 c6         1 IAB       0.182500
     29 O4Z         -7.5780    -2.5240    -1.5180 oh         1 IAB      -0.705000
     30 C5Z         -6.9140    -1.0110     0.2220 c2         1 IAB      -0.125400
     31 C6Z         -5.6430    -0.5670     0.3170 c2         1 IAB      -0.194200
     32 C7Z         -8.1150    -0.1110     0.4560 c3         1 IAB       0.205800
     33 O7Z         -8.2040     0.2290     1.8440 oh         1 IAB      -0.661000
     34 C1W          3.3710    -1.3930     1.5200 c6         1 IAB       0.375300
     35 C2W          3.9990    -2.8180     1.3450 c6         1 IAB       0.112300
     36 C3W          5.5420    -2.6760     1.2260 c6         1 IAB       0.138300
     37 C4W          5.8980    -1.7190     0.0500 c6         1 IAB       0.146300
     38 C5W          5.1800    -0.3500     0.2730 c6         1 IAB       0.178300
     39 C6W          5.4050     0.6480    -0.9070 c3         1 IAB       0.172600
     40 O2W          3.6530    -3.7090     2.4330 oh         1 IAB      -0.727000
     41 O3W          6.1500    -3.9670     1.0420 oh         1 IAB      -0.726000
     42 O4W          7.3280    -1.5820    -0.0390 oh         1 IAB      -0.719000
     43 O5W          3.7430    -0.5660     0.4120 os         1 IAB      -0.480000
     44 H1X          5.3480     3.2160    -2.0660 h2         1 IAB       0.067700
     45 H2X          3.3150     4.6950    -1.7370 h1         1 IAB       0.057700
     46 H3X          2.8030     2.8090     0.6230 h1         1 IAB       0.073700
     47 H4X          0.8840     3.2040    -1.7320 h1         1 IAB       0.062700
     48 H5X          2.6790     0.7640    -1.3890 h1         1 IAB       0.101700
     49 H6X1         0.6700     0.5030    -2.7640 h1         1 IAB       0.028700
     50 H6X2         1.1430     1.8740    -3.7750 h1         1 IAB       0.028700
     51 H5           5.3150     5.0270    -0.4070 ho         1 IAB       0.509000
     52 H4           2.4460     5.1830     0.6900 ho         1 IAB       0.520000
     53 H6X          1.6960    -0.1070    -4.7830 ho         1 IAB       0.502000
     54 H1Y          0.0380     3.1010     1.0630 h2         1 IAB       0.087700
     55 H2Y         -1.4060     1.6430     2.3320 h1         1 IAB       0.059700
     56 H3Y         -0.7130    -0.5530     0.3200 h1         1 IAB       0.074700
     57 H1          -3.3670     0.9080     0.7940 h1         1 IAB       0.052700
     58 H5Y         -1.4460     1.0070    -1.6010 h1         1 IAB       0.048700
     59 H6Y1        -2.9250     2.9010    -2.3790 hc         1 IAB       0.048700
     60 H6Y2        -3.7930     1.3640    -2.3740 hc         1 IAB       0.048700
     61 H6Y3        -4.0720     2.5390    -1.0770 hc         1 IAB       0.048700
     62 H3           0.7270     1.4250     2.9970 ho         1 IAB       0.515000
     63 H2          -1.0110    -0.9730     2.6500 ho         1 IAB       0.456000
     64 H4Y         -3.7670    -0.4120    -1.4520 hn         1 IAB       0.437000
     65 H1Z         -4.0390    -1.6710     1.1990 h1         1 IAB       0.104700
     66 H2Z         -3.9110    -3.5300    -0.2580 h1         1 IAB       0.063700
     67 H10         -5.9220    -2.5960    -1.9770 ho         1 IAB       0.503000
     68 H3Z         -6.2540    -4.4010    -0.2720 h1         1 IAB       0.026700
     69 H11         -6.6800    -4.0370     1.9470 ho         1 IAB       0.442000
     70 H4Z         -8.1110    -2.7940     0.4760 h1         1 IAB       0.023700
     71 H12         -8.5040    -2.1970    -1.6050 ho         1 IAB       0.495000
     72 H6Z         -5.4680     0.4760     0.5770 ha         1 IAB       0.193000
     73 H7Z1        -8.0070     0.7990    -0.1490 h1         1 IAB       0.026200
     74 H7Z2        -9.0370    -0.6110     0.1310 h1         1 IAB       0.026200
     75 H7Z         -8.9830     0.8210     1.9400 ho         1 IAB       0.445000
     76 H1W          3.7170    -0.9350     2.4600 h2         1 IAB       0.023700
     77 H2W          3.6200    -3.2280     0.3960 h1         1 IAB       0.068700
     78 H3W          5.9110    -2.2240     2.1600 h1         1 IAB       0.049700
     79 H4W          5.5090    -2.1580    -0.8810 h1         1 IAB       0.060700
     80 H5W          5.5610     0.1150     1.1940 h1         1 IAB       0.055700
     81 H6W1         4.9560     0.2220    -1.8140 h1         1 IAB       0.057200
     82 H6W2         6.4800     0.7830    -1.0830 h1         1 IAB       0.057200
     83 H7           2.6860    -3.5700     2.5870 ho         1 IAB       0.524000
     84 H8           5.6120    -4.5720     1.6100 ho         1 IAB       0.523000
     85 H9           7.6730    -2.4860     0.1680 ho         1 IAB       0.524000
     86 O1W          1.9520    -1.4820     1.5140 oh         1 IAB      -0.725000
     87 H6           1.6090    -0.5670     1.7030 ho         1 IAB       0.553000
@<TRIPOS>BOND
     1     1     2 1   
     2     1     7 1   
     3     1    11 1   
     4     1    44 1   
     5     2     3 1   
     6     2     8 1   
     7     2    45 1   
     8     3     4 1   
     9     3     9 1   
    10     3    46 1   
    11     4     5 1   
    12     4    10 1   
    13     4    47 1   
    14     5     6 1   
    15     5    11 1   
    16     5    48 1   
    17     6    12 1   
    18     6    49 1   
    19     6    50 1   
    20     7    39 1   
    21     8    51 1   
    22     9    52 1   
    23    10    13 1   
    24    12    53 1   
    25    13    14 1   
    26    13    22 1   
    27    13    54 1   
    28    14    15 1   
    29    14    19 1   
    30    14    55 1   
    31    15    16 1   
    32    15    20 1   
    33    15    56 1   
    34    16    17 1   
    35    16    21 1   
    36    16    57 1   
    37    17    18 1   
    38    17    22 1   
    39    17    58 1   
    40    18    59 1   
    41    18    60 1   
    42    18    61 1   
    43    19    62 1   
    44    20    63 1   
    45    21    23 1   
    46    21    64 1   
    47    23    24 1   
    48    23    31 1   
    49    23    65 1   
    50    24    25 1   
    51    24    26 1   
    52    24    66 1   
    53    25    67 1   
    54    26    27 1   
    55    26    28 1   
    56    26    68 1   
    57    27    69 1   
    58    28    29 1   
    59    28    30 1   
    60    28    70 1   
    61    29    71 1   
    62    30    31 2   
    63    30    32 1   
    64    31    72 1   
    65    32    33 1   
    66    32    73 1   
    67    32    74 1   
    68    33    75 1   
    69    34    35 1   
    70    34    43 1   
    71    34    76 1   
    72    34    86 1   
    73    35    36 1   
    74    35    40 1   
    75    35    77 1   
    76    36    37 1   
    77    36    41 1   
    78    36    78 1   
    79    37    38 1   
    80    37    42 1   
    81    37    79 1   
    82    38    39 1   
    83    38    43 1   
    84    38    80 1   
    85    39    81 1   
    86    39    82 1   
    87    40    83 1   
    88    41    84 1   
    89    42    85 1   
    90    86    87 1   
@<TRIPOS>SUBSTRUCTURE
     1 IAB         1 TEMP              0 ****  ****    0 ROOT
