@<TRIPOS>MOLECULE
IAC
   21    22     1     0     0
SMALL
abcg2


@<TRIPOS>ATOM
      1 C           -1.6980    -0.8010     0.0460 ca         1 IAC      -0.050200
      2 C1          -0.6420     0.0730    -0.3010 ca         1 IAC      -0.077800
      3 C2          -0.8950     1.4480    -0.3680 ca         1 IAC      -0.014000
      4 C3          -2.1710     1.9100    -0.1080 ca         1 IAC      -0.179000
      5 C4          -3.2060     1.0230     0.2350 ca         1 IAC      -0.103000
      6 C5          -2.9850    -0.3390     0.3190 ca         1 IAC      -0.157000
      7 C7           0.5270    -0.7280    -0.5120 cc         1 IAC      -0.027400
      8 C8           0.1370    -2.0180    -0.2930 cd         1 IAC      -0.220100
      9 C17          1.8750    -0.2500    -0.9210 c3         1 IAC      -0.163200
     10 C18          2.6360     0.6000     0.1240 c          1 IAC       0.720000
     11 N           -1.1910    -2.0660     0.0480 na         1 IAC      -0.242700
     12 O2           3.7590     1.0070    -0.2390 o          1 IAC      -0.730500
     13 O3           2.0880     0.8080     1.2200 o          1 IAC      -0.730500
     14 H2          -0.1030     2.1410    -0.6250 ha         1 IAC       0.130000
     15 H3          -2.3800     2.9710    -0.1610 ha         1 IAC       0.093000
     16 H4          -4.1950     1.4130     0.4410 ha         1 IAC       0.085000
     17 H5          -3.7840    -1.0200     0.5860 ha         1 IAC       0.090000
     18 H8           0.7160    -2.9260    -0.3580 h4         1 IAC       0.196000
     19 H171         2.5030    -1.1070    -1.1880 hc         1 IAC       0.027700
     20 H172         1.8000     0.3440    -1.8390 hc         1 IAC       0.027700
     21 HN          -1.7050    -2.9060     0.2490 hn         1 IAC       0.326000
@<TRIPOS>BOND
     1     1     2 ar  
     2     1     6 ar  
     3     1    11 1   
     4     2     3 ar  
     5     2     7 1   
     6     3     4 ar  
     7     3    14 1   
     8     4     5 ar  
     9     4    15 1   
    10     5     6 ar  
    11     5    16 1   
    12     6    17 1   
    13     7     8 2   
    14     7     9 1   
    15     8    11 1   
    16     8    18 1   
    17     9    10 1   
    18     9    19 1   
    19     9    20 1   
    20    10    12 1   
    21    10    13 1   
    22    11    21 1   
@<TRIPOS>SUBSTRUCTURE
     1 IAC         1 TEMP              0 ****  ****    0 ROOT
