@<TRIPOS>MOLECULE
IAC
   21    22     1     0     0
SMALL
No Charge or Current Charge


@<TRIPOS>ATOM
      1 C           -1.6740    -0.7480     0.0600 ca         1 IAC      -0.050200
      2 C1          -0.6620     0.0800    -0.3410 ca         1 IAC      -0.077800
      3 C2          -0.8670     1.4530    -0.5430 ca         1 IAC      -0.014000
      4 C3          -2.1620     1.9680    -0.3190 ca         1 IAC      -0.179000
      5 C4          -3.2100     1.1120     0.0950 ca         1 IAC      -0.103000
      6 C5          -2.9690    -0.2640     0.2890 ca         1 IAC      -0.157000
      7 C7           0.5260    -0.7160    -0.4870 cc         1 IAC      -0.027400
      8 C8           0.1520    -2.0160    -0.1580 cd         1 IAC      -0.220100
      9 C17          1.8890    -0.2410    -0.9240 c3         1 IAC      -0.163200
     10 C18          2.6750     0.4070     0.2290 c          1 IAC       0.720000
     11 N           -1.2220    -2.0480     0.1880 na         1 IAC      -0.242700
     12 O2           2.5250     1.6040     0.4290 o          1 IAC      -0.730500
     13 O3           3.3320    -0.3200     0.9600 o          1 IAC      -0.730500
     14 H2          -0.0540     2.1020    -0.8600 ha         1 IAC       0.130000
     15 H3          -2.3550     3.0280    -0.4670 ha         1 IAC       0.093000
     16 H4          -4.2050     1.5170     0.2650 ha         1 IAC       0.085000
     17 H5          -3.7670    -0.9300     0.6080 ha         1 IAC       0.090000
     18 H8           0.7630    -2.9140    -0.1470 h4         1 IAC       0.196000
     19 H171         2.4210    -1.1330    -1.2760 hc         1 IAC       0.027700
     20 H172         1.7180     0.4940    -1.7190 hc         1 IAC       0.027700
     21 HN          -1.7670    -2.8580     0.4710 hn         1 IAC       0.326000
@<TRIPOS>BOND
     1     1     2 ar  
     2     1     6 ar  
     3     1    11 1   
     4     2     3 ar  
     5     2     7 1   
     6     3     4 ar  
     7     3    14 1   
     8     4     5 ar  
     9     4    15 1   
    10     5     6 ar  
    11     5    16 1   
    12     6    17 1   
    13     7     8 2   
    14     7     9 1   
    15     8    11 1   
    16     8    18 1   
    17     9    10 1   
    18     9    19 1   
    19     9    20 1   
    20    10    12 1   
    21    10    13 1   
    22    11    21 1   
@<TRIPOS>SUBSTRUCTURE
     1 IAC         1 TEMP              0 ****  ****    0 ROOT
