@<TRIPOS>MOLECULE
IAD
   33    34     1     0     0
SMALL
abcg2


@<TRIPOS>ATOM
      1 OD2         45.0030    28.3590    10.1920 o          1 IAD      -0.765500
      2 CG          45.8700    29.2570    10.1840 c          1 IAD       0.746000
      3 OD1         45.9590    30.1830     9.3500 o          1 IAD      -0.765500
      4 CB          46.8620    29.2670    11.3570 c3         1 IAD      -0.178400
      5 CA          47.4790    27.8990    11.6640 c3         1 IAD      -0.035300
      6 C           48.5570    27.5590    10.6110 c          1 IAD       0.711000
      7 O           49.7200    27.3680    11.0230 o          1 IAD      -0.738500
      8 O1          48.1700    27.5320     9.4300 o          1 IAD      -0.738500
      9 N           48.0860    27.8460    12.9770 ns         1 IAD      -0.439900
     10 C11         47.4190    27.8020    14.1270 c          1 IAD       0.574100
     11 O11         46.1930    27.8280    14.2120 o          1 IAD      -0.666100
     12 C10         48.2700    27.7680    15.3930 c3         1 IAD      -0.105200
     13 C3          49.6830    27.3240    15.2320 cc         1 IAD      -0.107400
     14 C2          50.8100    28.0970    15.2830 cd         1 IAD      -0.168100
     15 N1          51.9190    27.3240    15.0900 na         1 IAD      -0.228700
     16 C9          50.1310    25.9850    14.9910 ca         1 IAD      -0.078800
     17 C4          49.4750    24.7590    14.8360 ca         1 IAD      -0.029000
     18 C8          51.5400    26.0260    14.9090 ca         1 IAD      -0.038200
     19 C7          52.3030    24.8810    14.6850 ca         1 IAD      -0.140000
     20 C6          51.6280    23.6840    14.5400 ca         1 IAD      -0.099000
     21 C5          50.2260    23.6220    14.6150 ca         1 IAD      -0.157000
     22 HB1         46.3070    29.5950    12.2410 hc         1 IAD       0.005200
     23 HB2         47.6520    30.0050    11.1950 hc         1 IAD       0.005200
     24 HA          46.6790    27.1540    11.6070 h1         1 IAD       0.075700
     25 H           49.0910    27.7220    12.9660 hn         1 IAD       0.334500
     26 H1          47.7470    27.1320    16.1120 hc         1 IAD       0.044700
     27 H2A         48.2430    28.7780    15.8140 hc         1 IAD       0.044700
     28 H2          50.9040    29.1590    15.4460 h4         1 IAD       0.204000
     29 HN1         52.8660    27.6650    15.0920 hn         1 IAD       0.334000
     30 H4          48.3940    24.6990    14.8900 ha         1 IAD       0.125000
     31 H7          53.3830    24.9260    14.6260 ha         1 IAD       0.093000
     32 H6          52.1900    22.7760    14.3640 ha         1 IAD       0.087000
     33 H5          49.7320    22.6660    14.4950 ha         1 IAD       0.097000
@<TRIPOS>BOND
     1     1     2 1   
     2     2     3 1   
     3     2     4 1   
     4     4     5 1   
     5     4    22 1   
     6     4    23 1   
     7     5     6 1   
     8     5     9 1   
     9     5    24 1   
    10     6     7 1   
    11     6     8 1   
    12     9    10 1   
    13     9    25 1   
    14    10    11 2   
    15    10    12 1   
    16    12    13 1   
    17    12    26 1   
    18    12    27 1   
    19    13    14 2   
    20    13    16 1   
    21    14    15 1   
    22    14    28 1   
    23    15    18 1   
    24    15    29 1   
    25    16    17 ar  
    26    16    18 ar  
    27    17    21 ar  
    28    17    30 1   
    29    18    19 ar  
    30    19    20 ar  
    31    19    31 1   
    32    20    21 ar  
    33    20    32 1   
    34    21    33 1   
@<TRIPOS>SUBSTRUCTURE
     1 IAD         1 TEMP              0 ****  ****    0 ROOT
