@<TRIPOS>MOLECULE
IAD
   33    34     1     0     0
SMALL
No Charge or Current Charge


@<TRIPOS>ATOM
      1 OD2         44.8410    28.0850     9.7330 o          1 IAD      -0.765500
      2 CG          45.3470    29.1400    10.0860 c          1 IAD       0.746000
      3 OD1         45.3580    30.1450     9.3910 o          1 IAD      -0.765500
      4 CB          46.0240    29.1980    11.4700 c3         1 IAD      -0.178400
      5 CA          47.5020    28.7290    11.3600 c3         1 IAD      -0.035300
      6 C           48.3700    29.6640    10.4560 c          1 IAD       0.711000
      7 O           48.7450    30.7350    10.9160 o          1 IAD      -0.738500
      8 O1          48.7800    29.2170     9.3940 o          1 IAD      -0.738500
      9 N           48.1240    28.6070    12.7000 ns         1 IAD      -0.439900
     10 C11         48.0070    27.5250    13.5470 c          1 IAD       0.574100
     11 O11         47.3840    26.5150    13.2410 o          1 IAD      -0.666100
     12 C10         48.7350    27.6760    14.8910 c3         1 IAD      -0.105200
     13 C3          50.0790    26.9930    14.9240 cc         1 IAD      -0.107400
     14 C2          51.3300    27.5830    14.7630 cd         1 IAD      -0.168100
     15 N1          52.3400    26.5950    14.8650 na         1 IAD      -0.228700
     16 C9          50.3290    25.5940    15.1310 ca         1 IAD      -0.078800
     17 C4          49.4360    24.5330    15.3450 ca         1 IAD      -0.029000
     18 C8          51.6810    25.4010    15.0900 ca         1 IAD      -0.038200
     19 C7          52.2450    24.1290    15.2610 ca         1 IAD      -0.140000
     20 C6          51.3750    23.0390    15.4790 ca         1 IAD      -0.099000
     21 C5          49.9760    23.2400    15.5200 ca         1 IAD      -0.157000
     22 HB1         45.5400    28.4890    12.1520 hc         1 IAD       0.005200
     23 HB2         46.0510    30.2260    11.8540 hc         1 IAD       0.005200
     24 HA          47.5150    27.7360    10.8920 h1         1 IAD       0.075700
     25 H           48.6820    29.3850    13.0330 hn         1 IAD       0.334500
     26 H1          48.1060    27.2500    15.6810 hc         1 IAD       0.044700
     27 H2A         48.8980    28.7410    15.0960 hc         1 IAD       0.044700
     28 H2          51.5720    28.6280    14.5870 h4         1 IAD       0.204000
     29 HN1         53.3430    26.7330    14.7900 hn         1 IAD       0.334000
     30 H4          48.3620    24.6990    15.3720 ha         1 IAD       0.125000
     31 H7          53.3220    23.9840    15.2260 ha         1 IAD       0.093000
     32 H6          51.7830    22.0400    15.6150 ha         1 IAD       0.087000
     33 H5          49.3110    22.3960    15.6870 ha         1 IAD       0.097000
@<TRIPOS>BOND
     1     1     2 1   
     2     2     3 1   
     3     2     4 1   
     4     4     5 1   
     5     4    22 1   
     6     4    23 1   
     7     5     6 1   
     8     5     9 1   
     9     5    24 1   
    10     6     7 1   
    11     6     8 1   
    12     9    10 1   
    13     9    25 1   
    14    10    11 2   
    15    10    12 1   
    16    12    13 1   
    17    12    26 1   
    18    12    27 1   
    19    13    14 2   
    20    13    16 1   
    21    14    15 1   
    22    14    28 1   
    23    15    18 1   
    24    15    29 1   
    25    16    17 ar  
    26    16    18 ar  
    27    17    21 ar  
    28    17    30 1   
    29    18    19 ar  
    30    19    20 ar  
    31    19    31 1   
    32    20    21 ar  
    33    20    32 1   
    34    21    33 1   
@<TRIPOS>SUBSTRUCTURE
     1 IAD         1 TEMP              0 ****  ****    0 ROOT
