@<TRIPOS>MOLECULE
IAE
   28    28     1     0     0
SMALL
bcc


@<TRIPOS>ATOM
      1 N           32.0150   -17.3740   -28.2450 n8         1 IAE      -0.900800
      2 C           32.0960   -19.8490   -28.3780 c          1 IAE       0.930600
      3 O           32.7360   -19.6580   -29.4320 o          1 IAE      -0.832800
      4 CA          31.8280   -18.6040   -27.4870 c3         1 IAE       0.019500
      5 CB          30.4390   -18.6400   -26.8560 c3         1 IAE      -0.042400
      6 CG          30.1970   -17.4720   -25.8980 c3         1 IAE      -0.051100
      7 CD          28.8580   -17.5580   -25.2250 ca         1 IAE      -0.013300
      8 CE1         28.6520   -18.4420   -24.1650 ca         1 IAE      -0.138000
      9 CE2         27.7820   -16.7900   -25.6560 ca         1 IAE      -0.138000
     10 CZ1         27.4170   -18.5510   -23.5530 ca         1 IAE      -0.082500
     11 CZ2         26.5370   -16.8900   -25.0500 ca         1 IAE      -0.082500
     12 CH          26.3500   -17.7730   -23.9970 ca         1 IAE      -0.221300
     13 CI          25.0340   -17.8880   -23.3000 c3         1 IAE       0.719200
     14 FI1         24.0470   -17.2590   -23.9460 f          1 IAE      -0.243967
     15 FI2         24.6560   -19.1670   -23.1560 f          1 IAE      -0.243967
     16 FI3         25.0780   -17.3690   -22.0620 f          1 IAE      -0.243967
     17 OXT         31.6840   -20.9420   -27.9460 o          1 IAE      -0.832800
     18 H           32.3810   -16.6440   -27.6490 hn         1 IAE       0.329300
     19 H1          32.7150   -17.5560   -28.9530 hn         1 IAE       0.329300
     20 HA          32.5560   -18.6840   -26.6590 h1         1 IAE      -0.004300
     21 HB1         29.6800   -18.6220   -27.6450 hc         1 IAE       0.051200
     22 HB2         30.3130   -19.5790   -26.3150 hc         1 IAE       0.051200
     23 HG1         30.9840   -17.4640   -25.1370 hc         1 IAE       0.043700
     24 HG2         30.2710   -16.5270   -26.4410 hc         1 IAE       0.043700
     25 H9          29.4750   -19.0510   -23.8110 ha         1 IAE       0.141500
     26 H10         27.9150   -16.0940   -26.4760 ha         1 IAE       0.141500
     27 H11         27.2940   -19.2450   -22.7300 ha         1 IAE       0.134500
     28 H12         25.7250   -16.2720   -25.4110 ha         1 IAE       0.134500
@<TRIPOS>BOND
     1     1     4 1   
     2     1    18 1   
     3     1    19 1   
     4     2     3 1   
     5     2     4 1   
     6     2    17 1   
     7     4     5 1   
     8     4    20 1   
     9     5     6 1   
    10     5    21 1   
    11     5    22 1   
    12     6     7 1   
    13     6    23 1   
    14     6    24 1   
    15     7     8 ar  
    16     7     9 ar  
    17     8    10 ar  
    18     8    25 1   
    19     9    11 ar  
    20     9    26 1   
    21    10    12 ar  
    22    10    27 1   
    23    11    12 ar  
    24    11    28 1   
    25    12    13 1   
    26    13    14 1   
    27    13    15 1   
    28    13    16 1   
@<TRIPOS>SUBSTRUCTURE
     1 IAE         1 TEMP              0 ****  ****    0 ROOT
