@<TRIPOS>MOLECULE
IAE
   28    28     1     0     0
SMALL
No Charge or Current Charge


@<TRIPOS>ATOM
      1 N           32.1000   -17.2880   -28.3460 n8         1 IAE      -1.011200
      2 C           32.0230   -19.9130   -28.5330 c          1 IAE       0.720000
      3 O           33.1500   -20.3910   -28.5810 o          1 IAE      -0.727500
      4 CA          31.8100   -18.5990   -27.6580 c3         1 IAE       0.019500
      5 CB          30.4060   -18.5720   -26.9870 c3         1 IAE      -0.042400
      6 CG          30.2520   -17.5250   -25.8570 c3         1 IAE      -0.051100
      7 CD          28.8930   -17.6170   -25.1750 ca         1 IAE      -0.013300
      8 CE1         28.7310   -18.3900   -24.0110 ca         1 IAE      -0.120000
      9 CE2         27.7850   -16.9310   -25.7030 ca         1 IAE      -0.120000
     10 CZ1         27.4770   -18.4780   -23.3830 ca         1 IAE      -0.064500
     11 CZ2         26.5290   -17.0160   -25.0770 ca         1 IAE      -0.064500
     12 CH          26.3600   -17.7970   -23.9140 ca         1 IAE      -0.221300
     13 CI          24.9940   -17.8840   -23.2230 c3         1 IAE       0.355300
     14 FI1         23.9670   -17.7550   -24.0950 f          1 IAE      -0.122667
     15 FI2         24.8120   -19.0640   -22.5870 f          1 IAE      -0.122667
     16 FI3         24.8500   -16.9090   -22.2970 f          1 IAE      -0.122667
     17 OXT         31.0690   -20.4020   -29.1260 o          1 IAE      -0.727500
     18 H           32.0570   -16.5280   -27.6580 hn         1 IAE       0.384500
     19 H1          33.0800   -17.2830   -28.6560 hn         1 IAE       0.384500
     20 HA          32.5420   -18.6670   -26.8420 h1         1 IAE      -0.004300
     21 HB1         29.6350   -18.4030   -27.7490 hc         1 IAE       0.051200
     22 HB2         30.2090   -19.5630   -26.5590 hc         1 IAE       0.051200
     23 HG1         31.0520   -17.6700   -25.1210 hc         1 IAE       0.043700
     24 HG2         30.3900   -16.5170   -26.2670 hc         1 IAE       0.043700
     25 H9          29.5790   -18.9260   -23.5910 ha         1 IAE       0.123500
     26 H10         27.8960   -16.3280   -26.6010 ha         1 IAE       0.123500
     27 H11         27.3790   -19.0780   -22.4800 ha         1 IAE       0.116500
     28 H12         25.6890   -16.4700   -25.5020 ha         1 IAE       0.116500
@<TRIPOS>BOND
     1     1     4 1   
     2     1    18 1   
     3     1    19 1   
     4     2     3 1   
     5     2     4 1   
     6     2    17 1   
     7     4     5 1   
     8     4    20 1   
     9     5     6 1   
    10     5    21 1   
    11     5    22 1   
    12     6     7 1   
    13     6    23 1   
    14     6    24 1   
    15     7     8 ar  
    16     7     9 ar  
    17     8    10 ar  
    18     8    25 1   
    19     9    11 ar  
    20     9    26 1   
    21    10    12 ar  
    22    10    27 1   
    23    11    12 ar  
    24    11    28 1   
    25    12    13 1   
    26    13    14 1   
    27    13    15 1   
    28    13    16 1   
@<TRIPOS>SUBSTRUCTURE
     1 IAE         1 TEMP              0 ****  ****    0 ROOT
