@<TRIPOS>MOLECULE
IAF
   27    28     1     0     0
SMALL
No Charge or Current Charge


@<TRIPOS>ATOM
      1 C2          31.3540    10.9890    16.9660 ca         1 IAF      -0.017900
      2 C3          30.5420    12.0680    16.5530 ca         1 IAF      -0.047000
      3 C11         28.4620    14.5310    16.1680 c3         1 IAF      -0.005200
      4 C14         29.5310    15.6310    15.9940 c3         1 IAF       0.148800
      5 C20         26.9900    14.8210    19.0440 c3         1 IAF      -0.043900
      6 C24         30.3520    11.0510    19.1980 ca         1 IAF       0.152000
      7 C25         31.2610    10.4800    18.2840 ca         1 IAF      -0.110000
      8 Br1         32.5900    10.2080    15.7340 br         1 IAF      -0.112100
      9 C5          29.6510    12.6090    17.4920 ca         1 IAF      -0.075800
     10 C6          29.5570    12.1230    18.7660 ca         1 IAF      -0.072200
     11 N7          28.6020    12.8490    19.4590 na         1 IAF      -0.215700
     12 C9          28.0520    13.8420    18.6240 cc         1 IAF      -0.039300
     13 C10         28.7010    13.6940    17.4020 cd         1 IAF      -0.134400
     14 N17         29.3000    16.4540    14.7860 n8         1 IAF      -1.005200
     15 F27         30.2530    10.5770    20.4600 f          1 IAF      -0.184000
     16 H1          30.6080    12.4650    15.5430 ha         1 IAF       0.134000
     17 H2          27.4700    14.9980    16.2120 hc         1 IAF       0.052200
     18 H3          28.4580    13.8870    15.2800 hc         1 IAF       0.052200
     19 H4          30.5260    15.1690    15.9210 h1         1 IAF       0.032200
     20 H5          29.5210    16.2900    16.8740 h1         1 IAF       0.032200
     21 H6          26.0500    14.6240    18.5170 hc         1 IAF       0.054367
     22 H7          26.7940    14.7600    20.1210 hc         1 IAF       0.054367
     23 H8          27.2980    15.8490    18.8160 hc         1 IAF       0.054367
     24 H9          31.8880     9.6490    18.5960 ha         1 IAF       0.146000
     25 H10         28.3410    12.6880    20.4260 hn         1 IAF       0.361000
     26 H11         30.0650    17.1340    14.6930 hn         1 IAF       0.394000
     27 H12         29.4030    15.8620    13.9530 hn         1 IAF       0.394000
@<TRIPOS>BOND
     1     1     2 ar  
     2     1     7 ar  
     3     1     8 1   
     4     2     9 ar  
     5     2    16 1   
     6     3     4 1   
     7     3    13 1   
     8     3    17 1   
     9     3    18 1   
    10     4    14 1   
    11     4    19 1   
    12     4    20 1   
    13     5    12 1   
    14     5    21 1   
    15     5    22 1   
    16     5    23 1   
    17     6     7 ar  
    18     6    10 ar  
    19     6    15 1   
    20     7    24 1   
    21     9    10 ar  
    22     9    13 1   
    23    10    11 1   
    24    11    12 1   
    25    11    25 1   
    26    12    13 2   
    27    14    26 1   
    28    14    27 1   
@<TRIPOS>SUBSTRUCTURE
     1 IAF         1 TEMP              0 ****  ****    0 ROOT
