@<TRIPOS>MOLECULE
IAF
   27    28     1     0     0
SMALL
abcg2


@<TRIPOS>ATOM
      1 C2          31.3090    10.9580    17.0000 ca         1 IAF      -0.017900
      2 C3          30.5680    12.0320    16.5500 ca         1 IAF      -0.047000
      3 C11         28.5410    14.5750    16.1240 c3         1 IAF      -0.005200
      4 C14         29.5440    15.7310    16.0780 c3         1 IAF       0.148800
      5 C20         27.0220    14.7510    18.9900 c3         1 IAF      -0.043900
      6 C24         30.2710    11.0010    19.1500 ca         1 IAF       0.152000
      7 C25         31.1820    10.4240    18.2910 ca         1 IAF      -0.110000
      8 BR1         32.5800    10.1360    15.8160 br         1 IAF      -0.112100
      9 C5          29.6460    12.6070    17.4360 ca         1 IAF      -0.075800
     10 C6          29.5020    12.0820    18.7480 ca         1 IAF      -0.072200
     11 N7          28.5430    12.8170    19.3890 na         1 IAF      -0.215700
     12 C9          28.0680    13.7970    18.5350 cc         1 IAF      -0.039300
     13 C10         28.7180    13.6980    17.3240 cd         1 IAF      -0.134400
     14 N17         29.3460    16.5390    14.8680 n8         1 IAF      -1.005200
     15 F27         30.1230    10.5050    20.4050 f          1 IAF      -0.184000
     16 H1          30.6950    12.4180    15.5480 ha         1 IAF       0.134000
     17 H2          27.5300    14.9880    16.0980 hc         1 IAF       0.052200
     18 H3          28.6580    13.9760    15.2150 hc         1 IAF       0.052200
     19 H4          30.5600    15.3230    16.1620 h1         1 IAF       0.032200
     20 H5          29.3850    16.3740    16.9480 h1         1 IAF       0.032200
     21 H6          26.1470    14.2200    19.3740 hc         1 IAF       0.054367
     22 H7          27.3960    15.3920    19.7930 hc         1 IAF       0.054367
     23 H8          26.7040    15.3890    18.1680 hc         1 IAF       0.054367
     24 H9          31.7750     9.5830    18.6190 ha         1 IAF       0.146000
     25 H10         28.2330    12.6770    20.3370 hn         1 IAF       0.361000
     26 H11         29.9910    17.3230    14.8690 hn         1 IAF       0.394000
     27 H12         29.5820    15.9850    14.0500 hn         1 IAF       0.394000
@<TRIPOS>BOND
     1     1     2 ar  
     2     1     7 ar  
     3     1     8 1   
     4     2     9 ar  
     5     2    16 1   
     6     3     4 1   
     7     3    13 1   
     8     3    17 1   
     9     3    18 1   
    10     4    14 1   
    11     4    19 1   
    12     4    20 1   
    13     5    12 1   
    14     5    21 1   
    15     5    22 1   
    16     5    23 1   
    17     6     7 ar  
    18     6    10 ar  
    19     6    15 1   
    20     7    24 1   
    21     9    10 ar  
    22     9    13 1   
    23    10    11 1   
    24    11    12 1   
    25    11    25 1   
    26    12    13 2   
    27    14    26 1   
    28    14    27 1   
@<TRIPOS>SUBSTRUCTURE
     1 IAF         1 TEMP              0 ****  ****    0 ROOT
