@<TRIPOS>MOLECULE
IAG
   28    29     1     0     0
SMALL
No Charge or Current Charge


@<TRIPOS>ATOM
      1 O3          -0.4620    -0.8290     5.6160 o          1 IAG      -0.731500
      2 C12         -0.8640    -0.6400     4.4760 c          1 IAG       0.712000
      3 O2          -2.0130    -0.3090     4.2140 o          1 IAG      -0.731500
      4 C11          0.1570    -0.7670     3.3100 c3         1 IAG      -0.054000
      5 N2          -0.0960     0.2140     2.2290 ns         1 IAG      -0.471900
      6 C10          0.7420     0.4490     1.1610 c          1 IAG       0.583100
      7 O1           1.8010    -0.1500     1.0220 o          1 IAG      -0.642100
      8 C9           0.2450     1.5040     0.1610 c3         1 IAG      -0.097200
      9 C2          -0.3880     0.9070    -1.0700 cc         1 IAG      -0.092400
     10 C1          -1.7470     0.7620    -1.3350 cd         1 IAG      -0.172100
     11 N1          -1.9240     0.1570    -2.6040 na         1 IAG      -0.232700
     12 C7           0.2950     0.3730    -2.2160 ca         1 IAG      -0.076800
     13 C8          -0.6530    -0.0600    -3.1010 ca         1 IAG      -0.048200
     14 C6          -0.2980    -0.6370    -4.3280 ca         1 IAG      -0.143000
     15 C5           1.0740    -0.7640    -4.6330 ca         1 IAG      -0.097000
     16 C4           2.0530    -0.3160    -3.7150 ca         1 IAG      -0.157000
     17 C3           1.6670     0.2620    -2.4870 ca         1 IAG      -0.032000
     18 H111         1.1690    -0.6120     3.7060 h1         1 IAG       0.035200
     19 H112         0.0890    -1.7820     2.8980 h1         1 IAG       0.035200
     20 HN2         -0.9650     0.7390     2.2550 hn         1 IAG       0.335500
     21 HC91        -0.5040     2.1390     0.6490 hc         1 IAG       0.055200
     22 HC92         1.0960     2.1220    -0.1450 hc         1 IAG       0.055200
     23 HC1         -2.5950     1.0450    -0.7160 h4         1 IAG       0.207000
     24 HN1         -2.8040    -0.0700    -3.0580 hn         1 IAG       0.339000
     25 HC6         -1.0580    -0.9790    -5.0270 ha         1 IAG       0.100000
     26 HC5          1.3800    -1.2080    -5.5780 ha         1 IAG       0.096000
     27 HC4          3.1080    -0.4170    -3.9560 ha         1 IAG       0.103000
     28 HC3          2.4100     0.6070    -1.7730 ha         1 IAG       0.125000
@<TRIPOS>BOND
     1     1     2 1   
     2     2     3 1   
     3     2     4 1   
     4     4     5 1   
     5     4    18 1   
     6     4    19 1   
     7     5     6 1   
     8     5    20 1   
     9     6     7 2   
    10     6     8 1   
    11     8     9 1   
    12     8    21 1   
    13     8    22 1   
    14     9    10 2   
    15     9    12 1   
    16    10    11 1   
    17    10    23 1   
    18    11    13 1   
    19    11    24 1   
    20    12    13 ar  
    21    12    17 ar  
    22    13    14 ar  
    23    14    15 ar  
    24    14    25 1   
    25    15    16 ar  
    26    15    26 1   
    27    16    17 ar  
    28    16    27 1   
    29    17    28 1   
@<TRIPOS>SUBSTRUCTURE
     1 IAG         1 TEMP              0 ****  ****    0 ROOT
