@<TRIPOS>MOLECULE
IAG
   28    29     1     0     0
SMALL
bcc


@<TRIPOS>ATOM
      1 O3           0.6930    -0.5730     5.7570 o          1 IAG      -0.836800
      2 C12          0.2720     0.0890     4.7930 c          1 IAG       0.922600
      3 O2          -0.2120     1.2380     4.8130 o          1 IAG      -0.836800
      4 C11          0.3660    -0.6130     3.4230 c3         1 IAG      -0.054000
      5 N2          -0.1390     0.2320     2.3720 ns         1 IAG      -0.538900
      6 C10         -0.1570    -0.1030     1.0790 c          1 IAG       0.650100
      7 O1           0.2490    -1.1800     0.6620 o          1 IAG      -0.642100
      8 C9          -0.7120     0.9800     0.1610 c3         1 IAG      -0.097200
      9 C2          -0.9100     0.5300    -1.2420 cc         1 IAG      -0.092400
     10 C1          -2.1000     0.2950    -1.8700 cd         1 IAG      -0.122100
     11 N1          -1.8820    -0.0960    -3.1620 na         1 IAG      -0.182400
     12 C7           0.1090     0.2720    -2.2130 ca         1 IAG      -0.076800
     13 C8          -0.5400    -0.1190    -3.4050 ca         1 IAG      -0.048200
     14 C6           0.1670    -0.4460    -4.5610 ca         1 IAG      -0.161000
     15 C5           1.5460    -0.3730    -4.5070 ca         1 IAG      -0.115000
     16 C4           2.2110     0.0170    -3.3320 ca         1 IAG      -0.175000
     17 C3           1.5060     0.3340    -2.1870 ca         1 IAG      -0.050000
     18 H111         1.4090    -0.8850     3.2350 h1         1 IAG       0.035200
     19 H112        -0.1940    -1.5520     3.4710 h1         1 IAG       0.035200
     20 HN2         -0.4910     1.1280     2.6780 hn         1 IAG       0.335500
     21 HC91        -1.6510     1.3540     0.5760 hc         1 IAG       0.055200
     22 HC92        -0.0180     1.8280     0.1920 hc         1 IAG       0.055200
     23 HC1         -3.1050     0.3830    -1.4860 h4         1 IAG       0.157000
     24 HN1         -2.6040    -0.3190    -3.8260 hn         1 IAG       0.288700
     25 HC6         -0.3420    -0.7490    -5.4680 ha         1 IAG       0.118000
     26 HC5          2.1250    -0.6220    -5.3870 ha         1 IAG       0.114000
     27 HC4          3.2930     0.0610    -3.3270 ha         1 IAG       0.121000
     28 HC3          2.0280     0.6310    -1.2860 ha         1 IAG       0.143000
@<TRIPOS>BOND
     1     1     2 1   
     2     2     3 1   
     3     2     4 1   
     4     4     5 1   
     5     4    18 1   
     6     4    19 1   
     7     5     6 1   
     8     5    20 1   
     9     6     7 2   
    10     6     8 1   
    11     8     9 1   
    12     8    21 1   
    13     8    22 1   
    14     9    10 2   
    15     9    12 1   
    16    10    11 1   
    17    10    23 1   
    18    11    13 1   
    19    11    24 1   
    20    12    13 ar  
    21    12    17 ar  
    22    13    14 ar  
    23    14    15 ar  
    24    14    25 1   
    25    15    16 ar  
    26    15    26 1   
    27    16    17 ar  
    28    16    27 1   
    29    17    28 1   
@<TRIPOS>SUBSTRUCTURE
     1 IAG         1 TEMP              0 ****  ****    0 ROOT
