@<TRIPOS>MOLECULE
IAH
   53    56     1     0     0
SMALL
No Charge or Current Charge


@<TRIPOS>ATOM
      1 C01         33.8250    10.3500     5.8350 ca         1 IAH       0.145100
      2 C02         34.7860     9.3840     5.5100 ca         1 IAH      -0.177000
      3 C03         35.3790     9.3800     4.2350 ca         1 IAH      -0.054500
      4 C04         35.0170    10.3400     3.2570 ca         1 IAH      -0.063800
      5 C05         34.0470    11.3080     3.6100 ca         1 IAH      -0.054500
      6 C06         33.4580    11.3110     4.8870 ca         1 IAH      -0.177000
      7 C08         35.6550    10.3290     1.9160 cc         1 IAH      -0.182200
      8 C09         36.9920     9.9950     1.9250 cd         1 IAH       0.028600
      9 C11         37.2410    10.4560    -0.4650 c          1 IAH       0.597200
     10 C12         35.7980    10.8040    -0.5150 cd         1 IAH      -0.488400
     11 C13         35.0640    10.7720     0.6680 cc         1 IAH       0.338100
     12 C16         35.1140    11.2120    -1.7920 c          1 IAH       0.640300
     13 C17         35.7410    11.0090    -3.2020 c6         1 IAH      -0.137700
     14 C19         36.5440    12.2460    -3.7220 c6         1 IAH      -0.014500
     15 C20         37.0380    12.0290    -5.1490 c2         1 IAH      -0.215200
     16 C21         36.5900    11.0570    -5.9640 c2         1 IAH      -0.210200
     17 C22         35.5500    10.0200    -5.5560 c6         1 IAH      -0.030500
     18 C23         34.7680    10.4220    -4.2720 c6         1 IAH      -0.039700
     19 C24         34.5590     9.6990    -6.7160 c6         1 IAH      -0.067400
     20 C25         33.2190     9.0770    -6.2220 c6         1 IAH      -0.074400
     21 C26         33.4010     8.2920    -4.9000 c6         1 IAH      -0.073400
     22 C27         33.9450     9.1970    -3.7530 c6         1 IAH      -0.074400
     23 C28         35.7310    13.5700    -3.6930 c3         1 IAH      -0.088100
     24 N10         37.7050    10.0620     0.7540 ns         1 IAH      -0.374100
     25 O07         33.2470    10.3620     7.0690 oh         1 IAH      -0.531100
     26 O14         38.0290    10.5270    -1.3870 o          1 IAH      -0.561000
     27 O15         33.7560    11.0640     0.6870 oh         1 IAH      -0.539100
     28 O18         33.9980    11.7200    -1.7390 o          1 IAH      -0.603100
     29 H1          35.0760     8.6290     6.2370 ha         1 IAH       0.122500
     30 H2          36.0990     8.5980     4.0060 ha         1 IAH       0.115500
     31 H3          33.7660    12.0940     2.9160 ha         1 IAH       0.115500
     32 H4          32.7210    12.0680     5.1400 ha         1 IAH       0.122500
     33 H6          37.5790     9.7150     2.7950 h4         1 IAH       0.207000
     34 H7          36.4910    10.2260    -3.0820 hc         1 IAH       0.100700
     35 H8          37.4160    12.4100    -3.0740 hc         1 IAH       0.063700
     36 H10         37.7970    12.7310    -5.5030 ha         1 IAH       0.171000
     37 H11         36.9900    10.9640    -6.9760 ha         1 IAH       0.171000
     38 H13         36.1050     9.0970    -5.3330 hc         1 IAH       0.057700
     39 H14         34.0560    11.2140    -4.5430 hc         1 IAH       0.064700
     40 H15         35.0480     9.0150    -7.4240 hc         1 IAH       0.038700
     41 H16         34.3340    10.6130    -7.2830 hc         1 IAH       0.038700
     42 H17         32.4790     9.8740    -6.0660 hc         1 IAH       0.039200
     43 H18         32.8030     8.4210    -6.9990 hc         1 IAH       0.039200
     44 H19         32.4500     7.8350    -4.5950 hc         1 IAH       0.037700
     45 H20         34.0990     7.4600    -5.0710 hc         1 IAH       0.037700
     46 H21         33.1010     9.5590    -3.1510 hc         1 IAH       0.044200
     47 H22         34.5570     8.5810    -3.0800 hc         1 IAH       0.044200
     48 H23         35.4420    13.8460    -2.6730 hc         1 IAH       0.036700
     49 H24         36.3220    14.4020    -4.0940 hc         1 IAH       0.036700
     50 H25         34.8170    13.4960    -4.2950 hc         1 IAH       0.036700
     51 H26         33.6230     9.6240     7.5950 ho         1 IAH       0.465000
     52 H27         33.5810    11.3850    -0.2370 ho         1 IAH       0.544000
     53 H28         38.6930     9.8360     0.7570 hn         1 IAH       0.334500
@<TRIPOS>BOND
     1     1     2 ar  
     2     1     6 ar  
     3     1    25 1   
     4     2     3 ar  
     5     2    29 1   
     6     3     4 ar  
     7     3    30 1   
     8     4     5 ar  
     9     4     7 1   
    10     5     6 ar  
    11     5    31 1   
    12     6    32 1   
    13     7     8 2   
    14     7    11 1   
    15     8    24 1   
    16     8    33 1   
    17     9    10 1   
    18     9    24 1   
    19     9    26 2   
    20    10    11 2   
    21    10    12 1   
    22    11    27 1   
    23    12    13 1   
    24    12    28 2   
    25    13    14 1   
    26    13    18 1   
    27    13    34 1   
    28    14    15 1   
    29    14    23 1   
    30    14    35 1   
    31    15    16 2   
    32    15    36 1   
    33    16    17 1   
    34    16    37 1   
    35    17    18 1   
    36    17    19 1   
    37    17    38 1   
    38    18    22 1   
    39    18    39 1   
    40    19    20 1   
    41    19    40 1   
    42    19    41 1   
    43    20    21 1   
    44    20    42 1   
    45    20    43 1   
    46    21    22 1   
    47    21    44 1   
    48    21    45 1   
    49    22    46 1   
    50    22    47 1   
    51    23    48 1   
    52    23    49 1   
    53    23    50 1   
    54    24    53 1   
    55    25    51 1   
    56    27    52 1   
@<TRIPOS>SUBSTRUCTURE
     1 IAH         1 TEMP              0 ****  ****    0 ROOT
