@<TRIPOS>MOLECULE
IAH
   53    56     1     0     0
SMALL
abcg2


@<TRIPOS>ATOM
      1 C01         33.9820    11.0120     5.7350 ca         1 IAH       0.145100
      2 C02         34.6630     9.8270     5.4740 ca         1 IAH      -0.177000
      3 C03         35.2350     9.6170     4.2280 ca         1 IAH      -0.054500
      4 C04         35.1550    10.5740     3.2200 ca         1 IAH      -0.063800
      5 C05         34.4690    11.7580     3.4980 ca         1 IAH      -0.054500
      6 C06         33.8880    11.9790     4.7340 ca         1 IAH      -0.177000
      7 C08         35.8240    10.3540     1.9240 cc         1 IAH      -0.182200
      8 C09         37.1370    10.0060     1.8660 cd         1 IAH       0.028600
      9 C11         37.2060     9.9060    -0.5560 c          1 IAH       0.597200
     10 C12         35.8060    10.2770    -0.5540 cd         1 IAH      -0.488400
     11 C13         35.1400    10.4580     0.6800 cc         1 IAH       0.338100
     12 C16         35.0290    10.4680    -1.7760 c          1 IAH       0.640300
     13 C17         35.6680    10.5390    -3.1370 c6         1 IAH      -0.137700
     14 C19         36.3120    11.9430    -3.2890 c6         1 IAH      -0.014500
     15 C20         36.8290    12.1150    -4.6860 c2         1 IAH      -0.215200
     16 C21         36.4760    11.3470    -5.7110 c2         1 IAH      -0.210200
     17 C22         35.5000    10.2180    -5.6080 c6         1 IAH      -0.030500
     18 C23         34.7170    10.2210    -4.2920 c6         1 IAH      -0.039700
     19 C24         34.5190    10.2180    -6.7920 c6         1 IAH      -0.067400
     20 C25         33.2780     9.3600    -6.5020 c6         1 IAH      -0.074400
     21 C26         33.6100     8.2580    -5.5010 c6         1 IAH      -0.073400
     22 C27         34.0110     8.8600    -4.1450 c6         1 IAH      -0.074400
     23 C28         35.3940    13.1150    -2.9280 c3         1 IAH      -0.088100
     24 N10         37.7700     9.7830     0.7040 ns         1 IAH      -0.374100
     25 O07         33.4000    11.2780     6.9190 oh         1 IAH      -0.531100
     26 O14         37.9190     9.6850    -1.5270 o          1 IAH      -0.561000
     27 O15         33.8640    10.7260     0.7320 oh         1 IAH      -0.539100
     28 O18         33.8070    10.6660    -1.6900 o          1 IAH      -0.603100
     29 H1          34.7430     9.0610     6.2370 ha         1 IAH       0.122500
     30 H2          35.7480     8.6810     4.0410 ha         1 IAH       0.115500
     31 H3          34.4000    12.5340     2.7470 ha         1 IAH       0.115500
     32 H4          33.3670    12.9070     4.9310 ha         1 IAH       0.122500
     33 H6          37.7380     9.8960     2.7580 h4         1 IAH       0.207000
     34 H7          36.4890     9.8220    -3.1760 hc         1 IAH       0.100700
     35 H8          37.1720    11.9840    -2.6140 hc         1 IAH       0.063700
     36 H10         37.5250    12.9330    -4.8420 ha         1 IAH       0.171000
     37 H11         36.9060    11.5340    -6.6910 ha         1 IAH       0.171000
     38 H13         36.0770     9.2830    -5.6510 hc         1 IAH       0.057700
     39 H14         33.9560    11.0070    -4.3670 hc         1 IAH       0.064700
     40 H15         35.0370     9.8520    -7.6820 hc         1 IAH       0.038700
     41 H16         34.2150    11.2450    -7.0120 hc         1 IAH       0.038700
     42 H17         32.4800     9.9820    -6.0880 hc         1 IAH       0.039200
     43 H18         32.8850     8.9370    -7.4290 hc         1 IAH       0.039200
     44 H19         32.7600     7.5860    -5.3710 hc         1 IAH       0.037700
     45 H20         34.4210     7.6440    -5.9020 hc         1 IAH       0.037700
     46 H21         33.1210     8.9720    -3.5250 hc         1 IAH       0.044200
     47 H22         34.6690     8.1600    -3.6190 hc         1 IAH       0.044200
     48 H23         35.1440    13.1370    -1.8670 hc         1 IAH       0.036700
     49 H24         35.8930    14.0580    -3.1570 hc         1 IAH       0.036700
     50 H25         34.4650    13.0910    -3.5000 hc         1 IAH       0.036700
     51 H26         33.5320    10.5460     7.5330 ho         1 IAH       0.465000
     52 H27         33.5420    10.7420    -0.2300 ho         1 IAH       0.544000
     53 H28         38.7480     9.5250     0.7280 hn         1 IAH       0.334500
@<TRIPOS>BOND
     1     1     2 ar  
     2     1     6 ar  
     3     1    25 1   
     4     2     3 ar  
     5     2    29 1   
     6     3     4 ar  
     7     3    30 1   
     8     4     5 ar  
     9     4     7 1   
    10     5     6 ar  
    11     5    31 1   
    12     6    32 1   
    13     7     8 2   
    14     7    11 1   
    15     8    24 1   
    16     8    33 1   
    17     9    10 1   
    18     9    24 1   
    19     9    26 2   
    20    10    11 2   
    21    10    12 1   
    22    11    27 1   
    23    12    13 1   
    24    12    28 2   
    25    13    14 1   
    26    13    18 1   
    27    13    34 1   
    28    14    15 1   
    29    14    23 1   
    30    14    35 1   
    31    15    16 2   
    32    15    36 1   
    33    16    17 1   
    34    16    37 1   
    35    17    18 1   
    36    17    19 1   
    37    17    38 1   
    38    18    22 1   
    39    18    39 1   
    40    19    20 1   
    41    19    40 1   
    42    19    41 1   
    43    20    21 1   
    44    20    42 1   
    45    20    43 1   
    46    21    22 1   
    47    21    44 1   
    48    21    45 1   
    49    22    46 1   
    50    22    47 1   
    51    23    48 1   
    52    23    49 1   
    53    23    50 1   
    54    24    53 1   
    55    25    51 1   
    56    27    52 1   
@<TRIPOS>SUBSTRUCTURE
     1 IAH         1 TEMP              0 ****  ****    0 ROOT
