@<TRIPOS>MOLECULE
IAI
   51    55     1     0     0
SMALL
abcg2


@<TRIPOS>ATOM
      1 C10         95.2470    -5.4770    14.8240 c3         1 IAI       0.069900
      2 C11         93.7430   -11.3860    10.2040 cc         1 IAI       0.423500
      3 C15         93.7870   -12.7870     8.5950 cd         1 IAI       0.140400
      4 C16         95.0410   -12.2260     8.6120 cc         1 IAI      -0.273100
      5 C17         94.2970    -9.7890    11.7230 cd         1 IAI       0.515900
      6 C18         95.6130    -9.6800    11.1850 cd         1 IAI      -0.213000
      7 C19         95.9380   -10.4730    10.1350 cc         1 IAI      -0.057000
      8 C20         93.2850   -13.8060     7.6720 ca         1 IAI      -0.023800
      9 C21         94.0900   -14.3090     6.6470 ca         1 IAI      -0.086500
     10 C22         91.9820   -14.2900     7.7960 ca         1 IAI      -0.086500
     11 C23         91.4990   -15.2510     6.9190 ca         1 IAI      -0.118000
     12 C24         93.6060   -15.2670     5.7720 ca         1 IAI      -0.118000
     13 C25         92.3070   -15.7430     5.9040 ca         1 IAI      -0.104000
     14 C1          93.7270    -7.5060    14.6290 cc         1 IAI      -0.151600
     15 C2          92.5940    -7.8940    15.3480 cd         1 IAI      -0.253600
     16 N3          94.1320    -6.3390    15.1780 na         1 IAI       0.180800
     17 C4          94.5200    -8.1330    13.5360 c          1 IAI       0.648700
     18 N5          93.3480    -5.9480    16.1690 nc         1 IAI      -0.505800
     19 C6          91.7050    -9.0590    15.1750 c          1 IAI       0.645700
     20 C7          92.4240    -6.8740    16.2950 cd         1 IAI       0.251900
     21 O8          95.6830    -7.8210    13.3620 o          1 IAI      -0.595100
     22 N9          93.8380    -9.0330    12.7870 ns         1 IAI      -0.484400
     23 N12         93.4050   -10.6160    11.2400 nc         1 IAI      -0.682000
     24 N13         92.9990   -12.2650     9.5780 nd         1 IAI      -0.272600
     25 N14         95.0130   -11.3270     9.6420 na         1 IAI      -0.083400
     26 O26         91.5700    -9.6390    14.0970 o          1 IAI      -0.600100
     27 N27         91.0250    -9.4360    16.2660 ns         1 IAI      -0.493900
     28 N28         87.6780   -10.9570    15.6120 nc         1 IAI      -0.675000
     29 C29         88.7190   -10.0620    15.7600 cc         1 IAI       0.213300
     30 C30         86.6950   -10.2460    15.1910 cd         1 IAI       0.436900
     31 O31         86.9820    -8.9530    15.0420 os         1 IAI      -0.255000
     32 C32         88.2840    -8.8350    15.4090 cd         1 IAI       0.105900
     33 C33         90.0580   -10.5060    16.2480 c3         1 IAI       0.083700
     34 H1          95.0970    -4.5430    15.3550 h1         1 IAI       0.072367
     35 H2          96.1930    -5.9180    15.1250 h1         1 IAI       0.072367
     36 H3          95.2630    -5.2830    13.7560 h1         1 IAI       0.072367
     37 H5          96.3430    -8.9970    11.5800 ha         1 IAI       0.168000
     38 H6          96.9090   -10.4630     9.6610 h4         1 IAI       0.147000
     39 H7          95.1060   -13.9530     6.5240 ha         1 IAI       0.122000
     40 H8          91.3450   -13.9110     8.5840 ha         1 IAI       0.122000
     41 H9          90.4860   -15.6150     7.0310 ha         1 IAI       0.112000
     42 H10         94.2450   -15.6430     4.9840 ha         1 IAI       0.112000
     43 H11         91.9280   -16.4920     5.2200 ha         1 IAI       0.111000
     44 H12         91.6480    -6.7640    17.0380 h4         1 IAI       0.042100
     45 H13         92.8740    -9.2540    13.0810 hn         1 IAI       0.397500
     46 H14         91.2020    -8.9840    17.1480 hn         1 IAI       0.323500
     47 H15         85.6930   -10.5690    14.9500 h5         1 IAI       0.084100
     48 H16         88.7310    -7.8560    15.3670 h4         1 IAI       0.065100
     49 H17         90.4220   -11.3320    15.6340 h1         1 IAI       0.079200
     50 H18         89.9710   -10.8900    17.2650 h1         1 IAI       0.079200
     51 H4          95.9210   -12.3730     8.0090 h4         1 IAI       0.232000
@<TRIPOS>BOND
     1     1    16 1   
     2     1    34 1   
     3     1    35 1   
     4     1    36 1   
     5     2    23 1   
     6     2    24 2   
     7     2    25 1   
     8     3     4 2   
     9     3     8 1   
    10     3    24 1   
    11     4    25 1   
    12     4    51 1   
    13     5     6 1   
    14     5    22 1   
    15     5    23 2   
    16     6     7 2   
    17     6    37 1   
    18     7    25 1   
    19     7    38 1   
    20     8     9 ar  
    21     8    10 ar  
    22     9    12 ar  
    23     9    39 1   
    24    10    11 ar  
    25    10    40 1   
    26    11    13 ar  
    27    11    41 1   
    28    12    13 ar  
    29    12    42 1   
    30    13    43 1   
    31    14    15 2   
    32    14    16 1   
    33    14    17 1   
    34    15    19 1   
    35    15    20 1   
    36    16    18 1   
    37    17    21 2   
    38    17    22 1   
    39    18    20 2   
    40    19    26 2   
    41    19    27 1   
    42    20    44 1   
    43    22    45 1   
    44    27    33 1   
    45    27    46 1   
    46    28    29 1   
    47    28    30 2   
    48    29    32 2   
    49    29    33 1   
    50    30    31 1   
    51    30    47 1   
    52    31    32 1   
    53    32    48 1   
    54    33    49 1   
    55    33    50 1   
@<TRIPOS>SUBSTRUCTURE
     1 IAI         1 TEMP              0 ****  ****    0 ROOT
