@<TRIPOS>MOLECULE
IAI
   51    55     1     0     0
SMALL
No Charge or Current Charge


@<TRIPOS>ATOM
      1 C10         95.2350    -5.2970    14.9810 c3         1 IAI       0.069900
      2 C11         93.5880   -11.3110    10.2700 cc         1 IAI       0.423500
      3 C15         93.6430   -12.6860     8.5890 cd         1 IAI       0.140400
      4 C16         94.8790   -12.0670     8.5620 cc         1 IAI      -0.273100
      5 C17         94.1650    -9.7760    11.8050 cd         1 IAI       0.515900
      6 C18         95.4790    -9.6830    11.1850 cd         1 IAI      -0.213000
      7 C19         95.8270   -10.4170    10.0560 cc         1 IAI      -0.057000
      8 C20         93.1660   -13.7300     7.6550 ca         1 IAI      -0.023800
      9 C21         93.9930   -14.1920     6.6070 ca         1 IAI      -0.086500
     10 C22         91.8740   -14.2870     7.7920 ca         1 IAI      -0.086500
     11 C23         91.4230   -15.2800     6.9040 ca         1 IAI      -0.118000
     12 C24         93.5400   -15.1850     5.7200 ca         1 IAI      -0.118000
     13 C25         92.2550   -15.7290     5.8670 ca         1 IAI      -0.104000
     14 C1          93.7670    -7.4040    14.7330 cc         1 IAI      -0.151600
     15 C2          92.7430    -7.8840    15.5660 cd         1 IAI      -0.253600
     16 N3          94.1750    -6.2330    15.3950 na         1 IAI       0.180800
     17 C4          94.3610    -7.9180    13.4480 c          1 IAI       0.648700
     18 N5          93.4870    -5.9620    16.5510 nc         1 IAI      -0.505800
     19 C6          91.8780    -9.0970    15.4630 c          1 IAI       0.645700
     20 C7          92.6420    -6.9580    16.6290 cd         1 IAI       0.251900
     21 O8          95.2660    -7.3220    12.8860 o          1 IAI      -0.595100
     22 N9          93.8300    -9.0590    12.9180 ns         1 IAI      -0.484400
     23 N12         93.2240   -10.6040    11.3800 nc         1 IAI      -0.682000
     24 N13         92.8590   -12.2130     9.6430 nd         1 IAI      -0.272600
     25 N14         94.7750   -11.2030     9.6120 na         1 IAI      -0.083400
     26 O26         91.9240    -9.9280    14.5750 o          1 IAI      -0.600100
     27 N27         90.9730    -9.2240    16.4920 ns         1 IAI      -0.493900
     28 N28         87.7430    -9.4370    15.8780 nc         1 IAI      -0.675000
     29 C29         88.8480   -10.2020    15.6270 cc         1 IAI       0.213300
     30 C30         86.9910    -9.5960    14.7890 cd         1 IAI       0.436900
     31 O31         87.5320   -10.4180    13.8340 os         1 IAI      -0.255000
     32 C32         88.7130   -10.7840    14.4000 cd         1 IAI       0.105900
     33 C33         89.9940   -10.3180    16.6040 c3         1 IAI       0.083700
     34 H1          95.3200    -4.4780    15.7040 h1         1 IAI       0.072367
     35 H2          96.1920    -5.8280    14.9290 h1         1 IAI       0.072367
     36 H3          94.9920    -4.8810    13.9960 h1         1 IAI       0.072367
     37 H5          96.2420    -9.0460    11.6090 ha         1 IAI       0.168000
     38 H6          96.7750   -10.4240     9.5310 h4         1 IAI       0.147000
     39 H7          94.9920   -13.7860     6.4720 ha         1 IAI       0.122000
     40 H8          91.2100   -13.9550     8.5870 ha         1 IAI       0.122000
     41 H9          90.4260   -15.7000     7.0210 ha         1 IAI       0.112000
     42 H10         94.1880   -15.5310     4.9170 ha         1 IAI       0.112000
     43 H11         91.9060   -16.4970     5.1810 ha         1 IAI       0.111000
     44 H12         91.9650    -6.9830    17.4750 h4         1 IAI       0.042100
     45 H13         93.0120    -9.3910    13.4050 hn         1 IAI       0.397500
     46 H14         90.9660    -8.4980    17.1970 hn         1 IAI       0.323500
     47 H15         86.0220    -9.1510    14.5900 h5         1 IAI       0.084100
     48 H16         89.3640   -11.4460    13.8460 h4         1 IAI       0.065100
     49 H17         90.5070   -11.2750    16.4430 h1         1 IAI       0.079200
     50 H18         89.5910   -10.3280    17.6250 h1         1 IAI       0.079200
     51 H4          95.7490   -12.1680     7.9220 h4         1 IAI       0.232000
@<TRIPOS>BOND
     1     1    16 1   
     2     1    34 1   
     3     1    35 1   
     4     1    36 1   
     5     2    23 1   
     6     2    24 2   
     7     2    25 1   
     8     3     4 2   
     9     3     8 1   
    10     3    24 1   
    11     4    25 1   
    12     4    51 1   
    13     5     6 1   
    14     5    22 1   
    15     5    23 2   
    16     6     7 2   
    17     6    37 1   
    18     7    25 1   
    19     7    38 1   
    20     8     9 ar  
    21     8    10 ar  
    22     9    12 ar  
    23     9    39 1   
    24    10    11 ar  
    25    10    40 1   
    26    11    13 ar  
    27    11    41 1   
    28    12    13 ar  
    29    12    42 1   
    30    13    43 1   
    31    14    15 2   
    32    14    16 1   
    33    14    17 1   
    34    15    19 1   
    35    15    20 1   
    36    16    18 1   
    37    17    21 2   
    38    17    22 1   
    39    18    20 2   
    40    19    26 2   
    41    19    27 1   
    42    20    44 1   
    43    22    45 1   
    44    27    33 1   
    45    27    46 1   
    46    28    29 1   
    47    28    30 2   
    48    29    32 2   
    49    29    33 1   
    50    30    31 1   
    51    30    47 1   
    52    31    32 1   
    53    32    48 1   
    54    33    49 1   
    55    33    50 1   
@<TRIPOS>SUBSTRUCTURE
     1 IAI         1 TEMP              0 ****  ****    0 ROOT
