@<TRIPOS>MOLECULE
IAL
   49    52     1     0     0
SMALL
No Charge or Current Charge


@<TRIPOS>ATOM
      1 C11         94.5390   -13.0600     8.4070 cc         1 IAL       0.470400
      2 C13         94.5050   -14.1310     7.3960 ca         1 IAL      -0.111900
      3 C15         95.4160   -15.2130     5.3940 ca         1 IAL      -0.114500
      4 C16         94.4210   -16.2010     5.4620 ca         1 IAL      -0.097000
      5 C17         93.4680   -16.1600     6.4910 ca         1 IAL      -0.114500
      6 C18         93.5080   -15.1340     7.4510 ca         1 IAL      -0.082500
      7 C19         93.0450    -7.3840    15.1800 cc         1 IAL      -0.255600
      8 C20         92.4230    -8.6020    14.9080 cd         1 IAL      -0.156600
      9 C24         92.3150    -6.8190    16.2400 cc         1 IAL       0.259900
     10 C28         95.8070    -4.7890    14.4740 c3         1 IAL       0.085300
     11 C1          92.6920    -9.6540    13.8610 c          1 IAL       0.631700
     12 O3          92.0610   -10.7040    13.8250 o          1 IAL      -0.596100
     13 C4          94.1460   -10.0290    11.7730 ca         1 IAL      -0.048000
     14 C5          95.2810    -9.4810    11.1200 ca         1 IAL      -0.125000
     15 C6          95.8200   -10.0900     9.9690 ca         1 IAL      -0.094000
     16 C7          93.5440   -11.2050    11.2500 ca         1 IAL      -0.075000
     17 C8          94.0990   -11.7910    10.1040 ca         1 IAL       0.090400
     18 C9          95.1920   -11.2470     9.5000 ca         1 IAL      -0.100200
     19 N10         95.4830   -12.0340     8.4300 na         1 IAL      -0.304600
     20 N12         93.6700   -12.9330     9.4340 nd         1 IAL      -0.575100
     21 C14         95.4590   -14.1860     6.3530 ca         1 IAL      -0.082500
     22 N22         91.3630    -8.6490    15.8370 na         1 IAL       0.176800
     23 N23         91.3010    -7.5360    16.6550 nd         1 IAL      -0.513800
     24 N25         94.4800    -5.3780    14.7630 n          1 IAL      -0.390800
     25 O26         95.1830    -7.4550    14.1300 o          1 IAL      -0.639100
     26 C29         93.3460    -4.4230    14.7870 c3         1 IAL       0.085300
     27 H1          96.1560   -15.2430     4.5970 ha         1 IAL       0.116000
     28 H2          94.3890   -16.9950     4.7190 ha         1 IAL       0.115000
     29 H3          92.6950   -16.9240     6.5460 ha         1 IAL       0.116000
     30 H4          92.7590   -15.1230     8.2400 ha         1 IAL       0.122500
     31 H5          92.5260    -5.9050    16.7770 h4         1 IAL       0.044100
     32 H6          89.6570    -9.4540    16.7980 h1         1 IAL       0.070367
     33 H7          89.8020    -9.8370    15.0600 h1         1 IAL       0.070367
     34 H8          90.8590   -10.6560    16.2510 h1         1 IAL       0.070367
     35 H9          95.8470    -3.7500    14.8260 h1         1 IAL       0.045867
     36 H10         96.5910    -5.3610    14.9870 h1         1 IAL       0.045867
     37 H11         95.9940    -4.8090    13.3930 h1         1 IAL       0.045867
     38 H12         94.1340    -8.4680    13.1030 hn         1 IAL       0.202000
     39 H13         95.7480    -8.5780    11.5100 ha         1 IAL       0.125000
     40 H14         96.6910    -9.6740     9.4660 ha         1 IAL       0.118000
     41 H15         92.6680   -11.6610    11.6970 ha         1 IAL       0.159000
     42 H16         96.2370   -11.9090     7.7690 hn         1 IAL       0.356000
     43 H18         96.2420   -13.4350     6.2740 ha         1 IAL       0.122500
     44 H19         93.5680    -3.5660    14.1380 h1         1 IAL       0.045867
     45 H20         92.4280    -4.8960    14.4140 h1         1 IAL       0.045867
     46 H21         93.1880    -4.0530    15.8070 h1         1 IAL       0.045867
     47 N2          93.6640    -9.3450    12.9260 ns         1 IAL      -0.134000
     48 C21         94.3030    -6.7800    14.6420 c          1 IAL       0.659700
     49 C27         90.3580    -9.7150    15.9960 c3         1 IAL       0.069900
@<TRIPOS>BOND
     1     1     2 1   
     2     1    19 1   
     3     1    20 2   
     4     2     6 ar  
     5     2    21 ar  
     6     3     4 ar  
     7     3    21 ar  
     8     3    27 1   
     9     4     5 ar  
    10     4    28 1   
    11     5     6 ar  
    12     5    29 1   
    13     6    30 1   
    14     7     8 2   
    15     7     9 1   
    16     7    48 1   
    17     8    11 1   
    18     8    22 1   
    19     9    23 2   
    20     9    31 1   
    21    10    24 1   
    22    10    35 1   
    23    10    36 1   
    24    10    37 1   
    25    11    12 2   
    26    11    47 1   
    27    13    14 ar  
    28    13    16 ar  
    29    13    47 1   
    30    14    15 ar  
    31    14    39 1   
    32    15    18 ar  
    33    15    40 1   
    34    16    17 ar  
    35    16    41 1   
    36    17    18 ar  
    37    17    20 1   
    38    18    19 1   
    39    19    42 1   
    40    21    43 1   
    41    22    23 1   
    42    22    49 1   
    43    24    26 1   
    44    24    48 1   
    45    25    48 2   
    46    26    44 1   
    47    26    45 1   
    48    26    46 1   
    49    32    49 1   
    50    33    49 1   
    51    34    49 1   
    52    38    47 1   
@<TRIPOS>SUBSTRUCTURE
     1 IAL         1 TEMP              0 ****  ****    0 ROOT
