@<TRIPOS>MOLECULE
IAL
   49    52     1     0     0
SMALL
bcc


@<TRIPOS>ATOM
      1 C11         94.6240   -12.9950     8.5650 cc         1 IAL       0.470400
      2 C13         94.4510   -13.8760     7.4110 ca         1 IAL      -0.111900
      3 C15         95.2980   -15.0330     5.4680 ca         1 IAL      -0.132500
      4 C16         94.0370   -15.5550     5.2170 ca         1 IAL      -0.115000
      5 C17         92.9810   -15.2380     6.0630 ca         1 IAL      -0.132500
      6 C18         93.1840   -14.4050     7.1510 ca         1 IAL      -0.100500
      7 C19         93.1040    -7.2980    15.1200 cc         1 IAL      -0.320900
      8 C20         92.6030    -8.5780    14.8990 cd         1 IAL      -0.105900
      9 C24         92.4780    -6.8840    16.3040 cc         1 IAL       0.325200
     10 C28         95.0920    -4.4770    13.6320 c3         1 IAL       0.085300
     11 C1          92.7730    -9.5580    13.7900 c          1 IAL       0.698700
     12 O3          91.8560   -10.3000    13.4760 o          1 IAL      -0.596100
     13 C4          94.4470   -10.3170    12.1400 ca         1 IAL       0.044600
     14 C5          95.8420   -10.2830    11.9200 ca         1 IAL      -0.143000
     15 C6          96.4420   -10.9780    10.8900 ca         1 IAL      -0.112000
     16 C7          93.6220   -11.0670    11.3120 ca         1 IAL      -0.093000
     17 C8          94.2230   -11.7730    10.2690 ca         1 IAL       0.090400
     18 C9          95.6090   -11.7260    10.0670 ca         1 IAL      -0.100200
     19 N10         95.8310   -12.5160     8.9740 na         1 IAL      -0.254300
     20 N12         93.6410   -12.5700     9.3200 nd         1 IAL      -0.575100
     21 C14         95.5060   -14.1990     6.5560 ca         1 IAL      -0.100500
     22 N22         91.7440    -8.8230    15.9130 na         1 IAL       0.155400
     23 N23         91.6750    -7.8160    16.7700 nd         1 IAL      -0.513800
     24 N25         94.0000    -5.2610    14.1760 n          1 IAL      -0.457800
     25 O26         95.1870    -7.1710    14.0290 o          1 IAL      -0.639100
     26 C29         92.7460    -4.5450    14.3140 c3         1 IAL       0.085300
     27 H1          96.1250   -15.2710     4.8130 ha         1 IAL       0.134000
     28 H2          93.8770   -16.2060     4.3670 ha         1 IAL       0.133000
     29 H3          91.9950   -15.6410     5.8750 ha         1 IAL       0.134000
     30 H4          92.3610   -14.1610     7.8080 ha         1 IAL       0.140500
     31 H5          92.6040    -5.9530    16.8360 h4         1 IAL       0.044100
     32 H6          90.6050    -9.9330    17.2060 h1         1 IAL       0.070367
     33 H7          90.0860   -10.0540    15.5150 h1         1 IAL       0.070367
     34 H8          91.5400   -10.9070    16.0630 h1         1 IAL       0.070367
     35 H9          95.0630    -3.4810    14.0710 h1         1 IAL       0.045867
     36 H10         96.0510    -4.9290    13.8660 h1         1 IAL       0.045867
     37 H11         95.0050    -4.3760    12.5480 h1         1 IAL       0.045867
     38 H12         94.6530    -8.8590    13.5870 hn         1 IAL       0.368500
     39 H13         96.4630    -9.6910    12.5810 ha         1 IAL       0.143000
     40 H14         97.5120   -10.9350    10.7410 ha         1 IAL       0.136000
     41 H15         92.5540   -11.1110    11.4470 ha         1 IAL       0.177000
     42 H16         96.7310   -12.7140     8.5670 hn         1 IAL       0.305700
     43 H18         96.5000   -13.8010     6.7170 ha         1 IAL       0.140500
     44 H19         92.6060    -3.9100    13.4380 h1         1 IAL       0.045867
     45 H20         91.9020    -5.2240    14.3660 h1         1 IAL       0.045867
     46 H21         92.7430    -3.9070    15.1990 h1         1 IAL       0.045867
     47 N2          93.9890    -9.5400    13.2140 ns         1 IAL      -0.460100
     48 C21         94.1650    -6.5750    14.3830 c          1 IAL       0.726700
     49 C27         90.9450   -10.0050    16.1780 c3         1 IAL       0.040600
@<TRIPOS>BOND
     1     1     2 1   
     2     1    19 1   
     3     1    20 2   
     4     2     6 ar  
     5     2    21 ar  
     6     3     4 ar  
     7     3    21 ar  
     8     3    27 1   
     9     4     5 ar  
    10     4    28 1   
    11     5     6 ar  
    12     5    29 1   
    13     6    30 1   
    14     7     8 2   
    15     7     9 1   
    16     7    48 1   
    17     8    11 1   
    18     8    22 1   
    19     9    23 2   
    20     9    31 1   
    21    10    24 1   
    22    10    35 1   
    23    10    36 1   
    24    10    37 1   
    25    11    12 2   
    26    11    47 1   
    27    13    14 ar  
    28    13    16 ar  
    29    13    47 1   
    30    14    15 ar  
    31    14    39 1   
    32    15    18 ar  
    33    15    40 1   
    34    16    17 ar  
    35    16    41 1   
    36    17    18 ar  
    37    17    20 1   
    38    18    19 1   
    39    19    42 1   
    40    21    43 1   
    41    22    23 1   
    42    22    49 1   
    43    24    26 1   
    44    24    48 1   
    45    25    48 2   
    46    26    44 1   
    47    26    45 1   
    48    26    46 1   
    49    32    49 1   
    50    33    49 1   
    51    34    49 1   
    52    38    47 1   
@<TRIPOS>SUBSTRUCTURE
     1 IAL         1 TEMP              0 ****  ****    0 ROOT
