@<TRIPOS>MOLECULE
IAM
   36    36     1     0     0
SMALL
No Charge or Current Charge


@<TRIPOS>ATOM
      1 N            3.1400     4.3010     1.8220 n8         1 IAM      -1.010200
      2 CA           2.0080     4.6970     0.9040 c3         1 IAM       0.022500
      3 CB           2.5640     5.2230    -0.4450 c3         1 IAM      -0.006100
      4 CG           1.5000     5.9080    -1.2950 ca         1 IAM       0.008700
      5 CD1          0.9580     5.2610    -2.4230 ca         1 IAM      -0.111000
      6 CE1         -0.0210     5.8970    -3.2060 ca         1 IAM      -0.099000
      7 CZ          -0.4700     7.1900    -2.8720 ca         1 IAM      -0.119300
      8 CE2          0.0720     7.8370    -1.7460 ca         1 IAM      -0.099000
      9 CD2          1.0510     7.2010    -0.9630 ca         1 IAM      -0.111000
     10 CT          -1.5330     7.8760    -3.7180 c3         1 IAM       0.217100
     11 NH          -0.9000     8.6840    -4.7760 n7         1 IAM      -0.862400
     12 CI          -1.8010     9.4310    -5.6730 c3         1 IAM       0.170500
     13 CK1         -2.5400     8.4700    -6.6320 c3         1 IAM      -0.105100
     14 CK2         -0.9700    10.4740    -6.4440 c3         1 IAM      -0.105100
     15 C            0.8920     3.5970     0.6610 c          1 IAM       0.697000
     16 O           -0.2420     3.8240     1.0620 o          1 IAM      -0.729000
     17 OXT          1.2340     2.5110     0.2090 o          1 IAM      -0.729000
     18 HN2          3.5520     3.4280     1.4680 hn         1 IAM       0.386000
     19 H            2.7500     4.0200     2.7310 hn         1 IAM       0.386000
     20 HA           1.5090     5.5450     1.3950 h1         1 IAM       0.024700
     21 HB           3.0220     4.3930    -0.9990 hc         1 IAM       0.031700
     22 HB1          3.3740     5.9360    -0.2470 hc         1 IAM       0.031700
     23 HD1          1.2940     4.2630    -2.6920 ha         1 IAM       0.109000
     24 HE1         -0.4300     5.3840    -4.0740 ha         1 IAM       0.093500
     25 HE2         -0.2640     8.8370    -1.4780 ha         1 IAM       0.093500
     26 HD2          1.4620     7.7130    -0.0960 ha         1 IAM       0.109000
     27 HT1         -2.1540     8.5120    -3.0720 h1         1 IAM       0.025700
     28 HT2         -2.1890     7.1090    -4.1510 h1         1 IAM       0.025700
     29 HH          -0.3140     8.0640    -5.3440 hn         1 IAM       0.405000
     30 HI          -2.5520     9.9770    -5.0830 h1         1 IAM       0.053700
     31 HK11        -1.8290     7.8690    -7.2120 hc         1 IAM       0.032200
     32 HK12        -3.2020     7.7910    -6.0830 hc         1 IAM       0.032200
     33 HK13        -3.1600     9.0370    -7.3360 hc         1 IAM       0.032200
     34 HK21        -0.4690    11.1600    -5.7510 hc         1 IAM       0.032200
     35 HK22        -0.2060     9.9900    -7.0650 hc         1 IAM       0.032200
     36 HK23        -1.6160    11.0710    -7.1000 hc         1 IAM       0.032200
@<TRIPOS>BOND
     1     1     2 1   
     2     1    18 1   
     3     1    19 1   
     4     2     3 1   
     5     2    15 1   
     6     2    20 1   
     7     3     4 1   
     8     3    21 1   
     9     3    22 1   
    10     4     5 ar  
    11     4     9 ar  
    12     5     6 ar  
    13     5    23 1   
    14     6     7 ar  
    15     6    24 1   
    16     7     8 ar  
    17     7    10 1   
    18     8     9 ar  
    19     8    25 1   
    20     9    26 1   
    21    10    11 1   
    22    10    27 1   
    23    10    28 1   
    24    11    12 1   
    25    11    29 1   
    26    12    13 1   
    27    12    14 1   
    28    12    30 1   
    29    13    31 1   
    30    13    32 1   
    31    13    33 1   
    32    14    34 1   
    33    14    35 1   
    34    14    36 1   
    35    15    16 1   
    36    15    17 1   
@<TRIPOS>SUBSTRUCTURE
     1 IAM         1 TEMP              0 ****  ****    0 ROOT
