@<TRIPOS>MOLECULE
IAM
   36    36     1     0     0
SMALL
abcg2


@<TRIPOS>ATOM
      1 N            3.3840     4.7650     1.6440 n8         1 IAM      -1.010200
      2 CA           2.0930     4.8300     0.9570 c3         1 IAM       0.022500
      3 CB           2.3480     5.0270    -0.5540 c3         1 IAM      -0.006100
      4 CG           1.2360     5.5630    -1.4150 ca         1 IAM       0.008700
      5 CD1          0.7660     4.8920    -2.5400 ca         1 IAM      -0.111000
      6 CE1         -0.1340     5.4940    -3.4150 ca         1 IAM      -0.099000
      7 CZ          -0.5910     6.7860    -3.2000 ca         1 IAM      -0.119300
      8 CE2         -0.1190     7.4670    -2.0760 ca         1 IAM      -0.099000
      9 CD2          0.7750     6.8670    -1.2060 ca         1 IAM      -0.111000
     10 CT          -1.5160     7.4680    -4.1720 c3         1 IAM       0.217100
     11 NH          -0.8300     8.5590    -4.8470 n7         1 IAM      -0.862400
     12 CI          -1.7060     9.5360    -5.4820 c3         1 IAM       0.170500
     13 CK1         -2.5710     8.9660    -6.6070 c3         1 IAM      -0.105100
     14 CK2         -0.8600    10.7000    -5.9800 c3         1 IAM      -0.105100
     15 C            1.1540     3.6350     1.2730 c          1 IAM       0.697000
     16 O            0.0870     3.5940     0.6280 o          1 IAM      -0.729000
     17 OXT          1.5120     2.8300     2.1560 o          1 IAM      -0.729000
     18 HN2          3.5430     3.7970     1.8950 hn         1 IAM       0.386000
     19 H            3.3100     5.2420     2.5310 hn         1 IAM       0.386000
     20 HA           1.5820     5.7360     1.3080 h1         1 IAM       0.024700
     21 HB           2.7620     4.1090    -0.9870 hc         1 IAM       0.031700
     22 HB1          3.1660     5.7520    -0.6040 hc         1 IAM       0.031700
     23 HD1          1.1100     3.8860    -2.7450 ha         1 IAM       0.109000
     24 HE1         -0.4860     4.9390    -4.2770 ha         1 IAM       0.093500
     25 HE2         -0.4530     8.4810    -1.8880 ha         1 IAM       0.093500
     26 HD2          1.1320     7.4220    -0.3440 ha         1 IAM       0.109000
     27 HT1         -2.3700     7.8940    -3.6360 h1         1 IAM       0.025700
     28 HT2         -1.9320     6.7200    -4.8600 h1         1 IAM       0.025700
     29 HH          -0.2090     8.1710    -5.5500 hn         1 IAM       0.405000
     30 HI          -2.3710     9.9040    -4.6920 h1         1 IAM       0.053700
     31 HK11        -1.9470     8.4760    -7.3590 hc         1 IAM       0.032200
     32 HK12        -3.2890     8.2320    -6.2390 hc         1 IAM       0.032200
     33 HK13        -3.1340     9.7550    -7.1070 hc         1 IAM       0.032200
     34 HK21        -0.3370    11.1860    -5.1560 hc         1 IAM       0.032200
     35 HK22        -0.1110    10.3540    -6.6970 hc         1 IAM       0.032200
     36 HK23        -1.4740    11.4480    -6.4820 hc         1 IAM       0.032200
@<TRIPOS>BOND
     1     1     2 1   
     2     1    18 1   
     3     1    19 1   
     4     2     3 1   
     5     2    15 1   
     6     2    20 1   
     7     3     4 1   
     8     3    21 1   
     9     3    22 1   
    10     4     5 ar  
    11     4     9 ar  
    12     5     6 ar  
    13     5    23 1   
    14     6     7 ar  
    15     6    24 1   
    16     7     8 ar  
    17     7    10 1   
    18     8     9 ar  
    19     8    25 1   
    20     9    26 1   
    21    10    11 1   
    22    10    27 1   
    23    10    28 1   
    24    11    12 1   
    25    11    29 1   
    26    12    13 1   
    27    12    14 1   
    28    12    30 1   
    29    13    31 1   
    30    13    32 1   
    31    13    33 1   
    32    14    34 1   
    33    14    35 1   
    34    14    36 1   
    35    15    16 1   
    36    15    17 1   
@<TRIPOS>SUBSTRUCTURE
     1 IAM         1 TEMP              0 ****  ****    0 ROOT
