@<TRIPOS>MOLECULE
IAN
   26    26     1     0     0
SMALL
No Charge or Current Charge


@<TRIPOS>ATOM
      1 C1          -1.3140     0.2370     0.2740 ca         1 IAN      -0.026300
      2 O1           2.6610    -0.3550     0.4000 os         1 IAN      -0.613400
      3 P1           1.3270    -0.5160    -0.4990 p5         1 IAN       1.377400
      4 C2          -1.9510     0.5210    -0.9520 ca         1 IAN      -0.082500
      5 C3          -3.3020     0.1830    -1.1460 ca         1 IAN      -0.127000
      6 O3           0.2880     2.0400     0.2680 os         1 IAN      -0.446000
      7 C4          -4.0260    -0.4400    -0.1160 ca         1 IAN      -0.134000
      8 O4           1.5450     0.0050    -1.8850 o          1 IAN      -0.804500
      9 C5          -3.3990    -0.7240     1.1080 ca         1 IAN      -0.127000
     10 C6          -2.0480    -0.3860     1.3030 ca         1 IAN      -0.082500
     11 C7           3.8400    -1.0520    -0.0020 c3         1 IAN       0.228900
     12 C8           0.1550     0.6010     0.4860 c3         1 IAN      -0.120400
     13 H2          -1.3980     1.0060    -1.7530 ha         1 IAN       0.121500
     14 H3          -3.7860     0.4050    -2.0940 ha         1 IAN       0.091000
     15 H4          -5.0710    -0.7010    -0.2660 ha         1 IAN       0.087000
     16 H5          -3.9590    -1.2050     1.9070 ha         1 IAN       0.091000
     17 H6          -1.5720    -0.6100     2.2550 ha         1 IAN       0.121500
     18 H7           3.6660    -2.1350    -0.0240 h1         1 IAN       0.002367
     19 H7A          4.1650    -0.7280    -0.9990 h1         1 IAN       0.002367
     20 H7B          4.6560    -0.8520     0.7040 h1         1 IAN       0.002367
     21 H8           0.4090     0.3720     1.5290 h1         1 IAN       0.035700
     22 H9           1.5050     3.7150     0.5520 h1         1 IAN       0.015367
     23 H9A          1.7830     2.3870     1.7000 h1         1 IAN       0.015367
     24 H9B          2.3640     2.2590     0.0180 h1         1 IAN       0.015367
     25 C9           1.5470     2.6230     0.6540 c3         1 IAN       0.160900
     26 O41          0.8540    -1.9360    -0.4880 o          1 IAN      -0.804500
@<TRIPOS>BOND
     1     1     4 ar  
     2     1    10 ar  
     3     1    12 1   
     4     2     3 1   
     5     2    11 1   
     6     3     8 1   
     7     3    12 1   
     8     3    26 1   
     9     4     5 ar  
    10     4    13 1   
    11     5     7 ar  
    12     5    14 1   
    13     6    12 1   
    14     6    25 1   
    15     7     9 ar  
    16     7    15 1   
    17     9    10 ar  
    18     9    16 1   
    19    10    17 1   
    20    11    18 1   
    21    11    19 1   
    22    11    20 1   
    23    12    21 1   
    24    22    25 1   
    25    23    25 1   
    26    24    25 1   
@<TRIPOS>SUBSTRUCTURE
     1 IAN         1 TEMP              0 ****  ****    0 ROOT
