@<TRIPOS>MOLECULE
IAN
   26    26     1     0     0
SMALL
bcc


@<TRIPOS>ATOM
      1 C1          -1.3070     0.2250     0.3390 ca         1 IAN      -0.026300
      2 O1           2.5860    -0.6620     0.6090 os         1 IAN      -0.590200
      3 P1           1.1440    -0.8410    -0.1860 p5         1 IAN       1.219600
      4 C2          -1.8750     0.5850    -0.8820 ca         1 IAN      -0.100500
      5 C3          -3.2090     0.3060    -1.1480 ca         1 IAN      -0.145000
      6 O3           0.4200     1.8060     0.1570 os         1 IAN      -0.399600
      7 C4          -3.9930    -0.3440    -0.2040 ca         1 IAN      -0.152000
      8 O4           1.3340    -0.5310    -1.6450 o          1 IAN      -0.804500
      9 C5          -3.4310    -0.7120     1.0120 ca         1 IAN      -0.145000
     10 C6          -2.0980    -0.4300     1.2770 ca         1 IAN      -0.100500
     11 C7           3.7980    -0.6230    -0.1140 c3         1 IAN       0.205700
     12 C8           0.1420     0.5050     0.6210 c3         1 IAN       0.014200
     13 H2          -1.2770     1.0870    -1.6310 ha         1 IAN       0.139500
     14 H3          -3.6370     0.5970    -2.0990 ha         1 IAN       0.109000
     15 H4          -5.0330    -0.5590    -0.4120 ha         1 IAN       0.105000
     16 H5          -4.0320    -1.2170     1.7580 ha         1 IAN       0.109000
     17 H6          -1.6720    -0.7150     2.2320 ha         1 IAN       0.139500
     18 H7           3.9610    -1.5240    -0.7110 h1         1 IAN       0.002367
     19 H7A          3.8600     0.2390    -0.7830 h1         1 IAN       0.002367
     20 H7B          4.6110    -0.5470     0.6090 h1         1 IAN       0.002367
     21 H8           0.3110     0.4430     1.7090 h1         1 IAN       0.035700
     22 H9           1.6450     3.3990     0.3230 h1         1 IAN       0.015367
     23 H9A          1.9580     2.1360     1.5230 h1         1 IAN       0.015367
     24 H9B          2.4840     1.9220    -0.1570 h1         1 IAN       0.015367
     25 C9           1.6880     2.3210     0.4770 c3         1 IAN       0.137700
     26 O41          0.5600    -2.1540     0.2570 o          1 IAN      -0.804500
@<TRIPOS>BOND
     1     1     4 ar  
     2     1    10 ar  
     3     1    12 1   
     4     2     3 1   
     5     2    11 1   
     6     3     8 1   
     7     3    12 1   
     8     3    26 1   
     9     4     5 ar  
    10     4    13 1   
    11     5     7 ar  
    12     5    14 1   
    13     6    12 1   
    14     6    25 1   
    15     7     9 ar  
    16     7    15 1   
    17     9    10 ar  
    18     9    16 1   
    19    10    17 1   
    20    11    18 1   
    21    11    19 1   
    22    11    20 1   
    23    12    21 1   
    24    22    25 1   
    25    23    25 1   
    26    24    25 1   
@<TRIPOS>SUBSTRUCTURE
     1 IAN         1 TEMP              0 ****  ****    0 ROOT
