@<TRIPOS>MOLECULE
IAO
   27    29     1     0     0
SMALL
No Charge or Current Charge


@<TRIPOS>ATOM
      1 C4          -9.7940   -15.7190   -12.2240 ca         1 IAO      -0.135000
      2 C5          -8.3850   -15.8650   -12.2490 ca         1 IAO       0.112100
      3 C6          -8.4270   -16.8460   -14.5230 c3         1 IAO       0.153900
      4 C7          -7.6550   -15.4920   -11.0940 ca         1 IAO       0.024800
      5 C8          -8.3160   -15.0680    -9.9380 ca         1 IAO      -0.180000
      6 C9          -5.9130   -15.2200    -9.6130 cc         1 IAO       0.437800
      7 C10         -5.2650   -15.1270   -11.6550 cc         1 IAO       0.668400
      8 N1          -4.7050   -14.6800    -9.5990 nd         1 IAO      -0.303000
      9 N2          -4.2610   -14.6970   -10.9140 nd         1 IAO      -0.427000
     10 C3         -10.4490   -15.2450   -11.0680 ca         1 IAO      -0.160000
     11 N3          -5.2620   -15.1510   -12.9920 nv         1 IAO      -1.037900
     12 C1         -11.7280   -14.3190    -8.6200 c3         1 IAO       0.148900
     13 C2          -9.7110   -14.9260    -9.9060 ca         1 IAO       0.153100
     14 O2          -7.7280   -16.3980   -13.3450 os         1 IAO      -0.369100
     15 S1          -7.2320   -14.7520    -8.5380 ss         1 IAO       0.052700
     16 N4          -6.2860   -15.5740   -10.8690 na         1 IAO      -0.304800
     17 H1         -10.4010   -15.9800   -13.0860 ha         1 IAO       0.123000
     18 H2          -7.7160   -17.2390   -15.2610 h1         1 IAO       0.047367
     19 H3          -9.1350   -17.6470   -14.2750 h1         1 IAO       0.047367
     20 H4          -8.9770   -16.0190   -14.9890 h1         1 IAO       0.047367
     21 H5         -11.5310   -15.1500   -11.0880 ha         1 IAO       0.124000
     22 H6          -4.3550   -15.1670   -13.4420 hn         1 IAO       0.486500
     23 H7          -6.0050   -15.6980   -13.4180 hn         1 IAO       0.486500
     24 H8         -11.9860   -13.9650    -7.6140 h1         1 IAO       0.046700
     25 H9         -12.0950   -13.5810    -9.3440 h1         1 IAO       0.046700
     26 H10        -12.2500   -15.2700    -8.7890 h1         1 IAO       0.046700
     27 O1         -10.3040   -14.4890    -8.7390 os         1 IAO      -0.339100
@<TRIPOS>BOND
     1     1     2 ar  
     2     1    10 ar  
     3     1    17 1   
     4     2     4 ar  
     5     2    14 1   
     6     3    14 1   
     7     3    18 1   
     8     3    19 1   
     9     3    20 1   
    10     4     5 ar  
    11     4    16 1   
    12     5    13 ar  
    13     5    15 1   
    14     6     8 2   
    15     6    15 1   
    16     6    16 1   
    17     7     9 2   
    18     7    11 1   
    19     7    16 1   
    20     8     9 1   
    21    10    13 ar  
    22    10    21 1   
    23    11    22 1   
    24    11    23 1   
    25    12    24 1   
    26    12    25 1   
    27    12    26 1   
    28    12    27 1   
    29    13    27 1   
@<TRIPOS>SUBSTRUCTURE
     1 IAO         1 TEMP              0 ****  ****    0 ROOT
