@<TRIPOS>MOLECULE
IAO
   27    29     1     0     0
SMALL
abcg2


@<TRIPOS>ATOM
      1 C4          -9.8470   -15.7350   -12.1890 ca         1 IAO      -0.135000
      2 C5          -8.4600   -15.7130   -12.2880 ca         1 IAO       0.112100
      3 C6          -8.4880   -16.6040   -14.5150 c3         1 IAO       0.153900
      4 C7          -7.7350   -15.2540   -11.1800 ca         1 IAO       0.024800
      5 C8          -8.4040   -14.8660   -10.0170 ca         1 IAO      -0.180000
      6 C9          -5.9690   -14.6800    -9.7470 cc         1 IAO       0.437800
      7 C10         -5.1430   -15.2860   -11.6710 cc         1 IAO       0.668400
      8 N1          -4.6830   -14.5860    -9.6290 nd         1 IAO      -0.303000
      9 N2          -4.1500   -14.9780   -10.8640 nd         1 IAO      -0.427000
     10 C3         -10.5110   -15.3290   -11.0290 ca         1 IAO      -0.160000
     11 N3          -5.0160   -15.6250   -12.9830 nv         1 IAO      -1.037900
     12 C1         -11.7410   -14.4860    -8.6010 c3         1 IAO       0.148900
     13 C2          -9.7960   -14.8920    -9.9220 ca         1 IAO       0.153100
     14 O2          -7.7610   -16.1170   -13.3830 os         1 IAO      -0.369100
     15 S1          -7.3340   -14.3660    -8.7080 ss         1 IAO       0.052700
     16 N4          -6.3430   -15.1250   -11.0060 na         1 IAO      -0.304800
     17 H1         -10.4370   -16.0790   -13.0240 ha         1 IAO       0.123000
     18 H2          -7.7360   -16.8720   -15.2520 h1         1 IAO       0.047367
     19 H3          -9.0750   -17.4840   -14.2470 h1         1 IAO       0.047367
     20 H4          -9.1420   -15.8280   -14.9170 h1         1 IAO       0.047367
     21 H5         -11.5890   -15.3680   -11.0060 ha         1 IAO       0.124000
     22 H6          -4.1050   -15.9770   -13.2360 hn         1 IAO       0.486500
     23 H7          -5.8010   -16.1110   -13.3920 hn         1 IAO       0.486500
     24 H8         -11.9420   -14.1260    -7.5950 h1         1 IAO       0.046700
     25 H9         -12.2030   -13.8190    -9.3320 h1         1 IAO       0.046700
     26 H10        -12.1410   -15.4950    -8.7200 h1         1 IAO       0.046700
     27 O1         -10.3190   -14.4830    -8.7380 os         1 IAO      -0.339100
@<TRIPOS>BOND
     1     1     2 ar  
     2     1    10 ar  
     3     1    17 1   
     4     2     4 ar  
     5     2    14 1   
     6     3    14 1   
     7     3    18 1   
     8     3    19 1   
     9     3    20 1   
    10     4     5 ar  
    11     4    16 1   
    12     5    13 ar  
    13     5    15 1   
    14     6     8 2   
    15     6    15 1   
    16     6    16 1   
    17     7     9 2   
    18     7    11 1   
    19     7    16 1   
    20     8     9 1   
    21    10    13 ar  
    22    10    21 1   
    23    11    22 1   
    24    11    23 1   
    25    12    24 1   
    26    12    25 1   
    27    12    26 1   
    28    12    27 1   
    29    13    27 1   
@<TRIPOS>SUBSTRUCTURE
     1 IAO         1 TEMP              0 ****  ****    0 ROOT
