@<TRIPOS>MOLECULE
IAQ
   57    60     1     0     0
SMALL
No Charge or Current Charge


@<TRIPOS>ATOM
      1 C4          -7.0550    -0.4110    -2.3470 ca         1 IAQ      -0.084000
      2 C5          -6.7280    -1.7100    -2.7670 ca         1 IAQ      -0.130000
      3 C6          -5.6930    -2.4130    -2.1330 ca         1 IAQ      -0.088000
      4 C13          0.6980     0.5480     1.8520 ca         1 IAQ      -0.085000
      5 C15          1.2830    -0.6910    -0.1470 ca         1 IAQ       0.202000
      6 C21         -1.5940     1.7110     3.4610 cc         1 IAQ       0.372700
      7 C24          3.5440    -0.0620     2.7190 c3         1 IAQ       0.102300
      8 C26          5.3910     1.0500     0.7810 ce         1 IAQ      -0.313200
      9 C28          6.4310     1.0230    -0.0930 c2         1 IAQ      -0.117200
     10 O27          3.5380     1.2290    -0.6790 o          1 IAQ      -0.582100
     11 C25          3.9440     0.8640     0.4170 c          1 IAQ       0.615300
     12 C29          6.3770     0.8430    -1.6000 c3         1 IAQ       0.177000
     13 N30          7.6620     0.3500    -2.1560 n3         1 IAQ      -0.716600
     14 C32          8.0030    -1.0220    -1.7080 c3         1 IAQ       0.148100
     15 C31          7.7240     0.4820    -3.6290 c3         1 IAQ       0.148100
     16 C14          1.6860    -0.0660     1.0560 ca         1 IAQ      -0.081000
     17 F22          2.1970    -1.2780    -0.9540 f          1 IAQ      -0.159000
     18 C16         -0.0720    -0.8010    -0.4850 ca         1 IAQ      -0.132000
     19 C11         -1.0680    -0.2460     0.3310 ca         1 IAQ       0.329000
     20 N10         -2.4120    -0.4060    -0.0990 nd         1 IAQ      -0.768000
     21 C12         -0.6670     0.4420     1.5100 ca         1 IAQ      -0.110000
     22 N17         -1.6690     1.0060     2.2830 na         1 IAQ       0.072200
     23 N20         -2.8370     2.0270     3.8420 nd         1 IAQ      -0.561300
     24 C19         -3.7010     1.5000     2.8790 cd         1 IAQ      -0.037400
     25 C18         -2.9500     0.8670     1.9140 cc         1 IAQ      -0.250000
     26 C9          -3.2820     0.1550     0.7250 cc         1 IAQ       0.699900
     27 C2          -5.2910    -0.5030    -0.6600 ca         1 IAQ       0.303000
     28 C3          -6.3460     0.2010    -1.2920 ca         1 IAQ      -0.127300
     29 C1          -4.9820    -1.8110    -1.0810 ca         1 IAQ      -0.123000
     30 H4          -7.8640     0.1210    -2.8440 ha         1 IAQ       0.111000
     31 H5          -7.2810    -2.1740    -3.5810 ha         1 IAQ       0.116000
     32 H6          -5.4430    -3.4230    -2.4520 ha         1 IAQ       0.115000
     33 H7          -7.1280     1.6250     0.1600 hc         1 IAQ       0.042367
     34 H7A         -5.8660     2.2910    -0.8970 hc         1 IAQ       0.042367
     35 H7B         -7.5010     2.0450    -1.5140 hc         1 IAQ       0.042367
     36 H13          1.0010     1.1110     2.7320 ha         1 IAQ       0.128000
     37 H21         -0.6680     1.9520     3.9680 h5         1 IAQ       0.073800
     38 H24          3.7480     0.8830     3.2370 h1         1 IAQ       0.042700
     39 H24A         2.7770    -0.6140     3.2770 h1         1 IAQ       0.042700
     40 H24B         4.4530    -0.6750     2.6920 h1         1 IAQ       0.042700
     41 H26          5.6210     1.1270     1.8400 ha         1 IAQ       0.184000
     42 H28          7.4490     1.1390     0.2850 ha         1 IAQ       0.183000
     43 H29          5.5680     0.1460    -1.8620 h1         1 IAQ       0.064200
     44 H29A         6.1200     1.8140    -2.0460 h1         1 IAQ       0.064200
     45 H32          7.2550    -1.7460    -2.0600 h1         1 IAQ       0.032033
     46 H32A         8.9830    -1.3250    -2.0990 h1         1 IAQ       0.032033
     47 H32B         8.0480    -1.0830    -0.6130 h1         1 IAQ       0.032033
     48 H31          7.5520     1.5240    -3.9330 h1         1 IAQ       0.032033
     49 H31A         8.7100     0.1810    -4.0060 h1         1 IAQ       0.032033
     50 H31B         6.9640    -0.1470    -4.1120 h1         1 IAQ       0.032033
     51 H16         -0.3540    -1.3210    -1.3940 ha         1 IAQ       0.154000
     52 H19         -4.7850     1.6020     2.9490 h4         1 IAQ       0.228000
     53 HN8         -5.1140     0.8130     0.8750 hn         1 IAQ       0.505000
     54 H1          -4.1920    -2.3660    -0.5860 ha         1 IAQ       0.149000
     55 C7          -6.7310     1.6170    -0.8620 c3         1 IAQ      -0.051800
     56 N8          -4.5990     0.0820     0.4040 nu         1 IAQ      -0.929900
     57 N23          3.0770     0.2100     1.3410 n          1 IAQ      -0.242400
@<TRIPOS>BOND
     1     1     2 ar  
     2     1    28 ar  
     3     1    30 1   
     4     2     3 ar  
     5     2    31 1   
     6     3    29 ar  
     7     3    32 1   
     8     4    16 ar  
     9     4    21 ar  
    10     4    36 1   
    11     5    16 ar  
    12     5    17 1   
    13     5    18 ar  
    14     6    22 1   
    15     6    23 2   
    16     6    37 1   
    17     7    38 1   
    18     7    39 1   
    19     7    40 1   
    20     7    57 1   
    21     8     9 2   
    22     8    11 1   
    23     8    41 1   
    24     9    12 1   
    25     9    42 1   
    26    10    11 2   
    27    11    57 1   
    28    12    13 1   
    29    12    43 1   
    30    12    44 1   
    31    13    14 1   
    32    13    15 1   
    33    14    45 1   
    34    14    46 1   
    35    14    47 1   
    36    15    48 1   
    37    15    49 1   
    38    15    50 1   
    39    16    57 1   
    40    18    19 ar  
    41    18    51 1   
    42    19    20 1   
    43    19    21 ar  
    44    20    26 2   
    45    21    22 1   
    46    22    25 1   
    47    23    24 1   
    48    24    25 2   
    49    24    52 1   
    50    25    26 1   
    51    26    56 1   
    52    27    28 ar  
    53    27    29 ar  
    54    27    56 1   
    55    28    55 1   
    56    29    54 1   
    57    33    55 1   
    58    34    55 1   
    59    35    55 1   
    60    53    56 1   
@<TRIPOS>SUBSTRUCTURE
     1 IAQ         1 TEMP              0 ****  ****    0 ROOT
