@<TRIPOS>MOLECULE
IAQ
   57    60     1     0     0
SMALL
abcg2


@<TRIPOS>ATOM
      1 C4          -7.2340    -0.7650    -1.9840 ca         1 IAQ      -0.084000
      2 C5          -6.6600    -1.8370    -2.6510 ca         1 IAQ      -0.130000
      3 C6          -5.3510    -2.1850    -2.3630 ca         1 IAQ      -0.088000
      4 C13          0.7830     0.7560     1.6400 ca         1 IAQ      -0.085000
      5 C15          1.2800    -0.7300    -0.1550 ca         1 IAQ       0.202000
      6 C21         -1.4890     2.1730     3.0840 cc         1 IAQ       0.372700
      7 C24          3.4910    -0.5100     2.5270 c3         1 IAQ       0.102300
      8 C26          5.3580     0.8210     0.8650 ce         1 IAQ      -0.313200
      9 C28          6.4020     0.8950     0.0370 c2         1 IAQ      -0.117200
     10 O27          3.5670     1.1970    -0.6430 o          1 IAQ      -0.582100
     11 C25          3.9520     0.7240     0.4160 c          1 IAQ       0.615300
     12 C29          6.4210     0.8590    -1.4580 c3         1 IAQ       0.177000
     13 N30          7.6730     0.3070    -1.9440 n3         1 IAQ      -0.716600
     14 C32          7.7760    -1.1050    -1.6440 c3         1 IAQ       0.148100
     15 C31          7.8350     0.5500    -3.3610 c3         1 IAQ       0.148100
     16 C14          1.7240     0.0520     0.9110 ca         1 IAQ      -0.081000
     17 F22          2.1780    -1.4340    -0.8490 f          1 IAQ      -0.159000
     18 C16         -0.0440    -0.8110    -0.5030 ca         1 IAQ      -0.132000
     19 C11         -1.0060    -0.1090     0.2330 ca         1 IAQ       0.329000
     20 N10         -2.3210    -0.2240    -0.1340 nd         1 IAQ      -0.768000
     21 C12         -0.5620     0.6720     1.3120 ca         1 IAQ      -0.110000
     22 N17         -1.5530     1.3520     2.0150 na         1 IAQ       0.072200
     23 N20         -2.6800     2.6000     3.4300 nd         1 IAQ      -0.561300
     24 C19         -3.5560     2.0410     2.5630 cd         1 IAQ      -0.037400
     25 C18         -2.8810     1.2530     1.6620 cc         1 IAQ      -0.250000
     26 C9          -3.2230     0.4180     0.5370 cc         1 IAQ       0.699900
     27 C2          -5.2020    -0.3940    -0.7550 ca         1 IAQ       0.303000
     28 C3          -6.5310    -0.0280    -1.0390 ca         1 IAQ      -0.127300
     29 C1          -4.6210    -1.4740    -1.4210 ca         1 IAQ      -0.123000
     30 H4          -8.2580    -0.4840    -2.2030 ha         1 IAQ       0.111000
     31 H5          -7.2300    -2.3890    -3.3860 ha         1 IAQ       0.116000
     32 H6          -4.8820    -3.0200    -2.8680 ha         1 IAQ       0.115000
     33 H7          -7.2640     0.9820     0.7350 hc         1 IAQ       0.042367
     34 H7A         -6.6440     2.0660    -0.5110 hc         1 IAQ       0.042367
     35 H7B         -8.1990     1.2780    -0.7160 hc         1 IAQ       0.042367
     36 H13          1.1170     1.3650     2.4700 ha         1 IAQ       0.128000
     37 H21         -0.5640     2.4280     3.5760 h5         1 IAQ       0.073800
     38 H24          3.6560     0.2360     3.3060 h1         1 IAQ       0.042700
     39 H24A         2.7040    -1.1810     2.8610 h1         1 IAQ       0.042700
     40 H24B         4.3960    -1.1020     2.4070 h1         1 IAQ       0.042700
     41 H26          5.5520     0.8620     1.9300 ha         1 IAQ       0.184000
     42 H28          7.3820     1.0040     0.4930 ha         1 IAQ       0.183000
     43 H29          5.5480     0.3260    -1.8620 h1         1 IAQ       0.064200
     44 H29A         6.3380     1.8910    -1.8170 h1         1 IAQ       0.064200
     45 H32          6.9870    -1.7060    -2.1250 h1         1 IAQ       0.032033
     46 H32A         8.7410    -1.4890    -1.9770 h1         1 IAQ       0.032033
     47 H32B         7.7100    -1.2750    -0.5680 h1         1 IAQ       0.032033
     48 H31          7.8130     1.6220    -3.5630 h1         1 IAQ       0.032033
     49 H31A         8.8000     0.1670    -3.6950 h1         1 IAQ       0.032033
     50 H31B         7.0560     0.0760    -3.9780 h1         1 IAQ       0.032033
     51 H16         -0.3590    -1.4250    -1.3370 ha         1 IAQ       0.154000
     52 H19         -4.6180     2.2280     2.6300 h4         1 IAQ       0.228000
     53 HN8         -5.1390     0.9440     0.7770 hn         1 IAQ       0.505000
     54 H1          -3.6030    -1.7540    -1.2090 ha         1 IAQ       0.149000
     55 C7          -7.1860     1.1320    -0.3460 c3         1 IAQ      -0.051800
     56 N8          -4.5400     0.3510     0.2260 nu         1 IAQ      -0.929900
     57 N23          3.0900     0.0920     1.2620 n          1 IAQ      -0.242400
@<TRIPOS>BOND
     1     1     2 ar  
     2     1    28 ar  
     3     1    30 1   
     4     2     3 ar  
     5     2    31 1   
     6     3    29 ar  
     7     3    32 1   
     8     4    16 ar  
     9     4    21 ar  
    10     4    36 1   
    11     5    16 ar  
    12     5    17 1   
    13     5    18 ar  
    14     6    22 1   
    15     6    23 2   
    16     6    37 1   
    17     7    38 1   
    18     7    39 1   
    19     7    40 1   
    20     7    57 1   
    21     8     9 2   
    22     8    11 1   
    23     8    41 1   
    24     9    12 1   
    25     9    42 1   
    26    10    11 2   
    27    11    57 1   
    28    12    13 1   
    29    12    43 1   
    30    12    44 1   
    31    13    14 1   
    32    13    15 1   
    33    14    45 1   
    34    14    46 1   
    35    14    47 1   
    36    15    48 1   
    37    15    49 1   
    38    15    50 1   
    39    16    57 1   
    40    18    19 ar  
    41    18    51 1   
    42    19    20 1   
    43    19    21 ar  
    44    20    26 2   
    45    21    22 1   
    46    22    25 1   
    47    23    24 1   
    48    24    25 2   
    49    24    52 1   
    50    25    26 1   
    51    26    56 1   
    52    27    28 ar  
    53    27    29 ar  
    54    27    56 1   
    55    28    55 1   
    56    29    54 1   
    57    33    55 1   
    58    34    55 1   
    59    35    55 1   
    60    53    56 1   
@<TRIPOS>SUBSTRUCTURE
     1 IAQ         1 TEMP              0 ****  ****    0 ROOT
