@<TRIPOS>MOLECULE
IAV
   37    38     1     0     0
SMALL
bcc


@<TRIPOS>ATOM
      1 O1          48.1390    25.6660    10.6650 o          1 IAV      -0.668100
      2 C10         49.2470    25.8260    11.1670 c          1 IAV       0.657100
      3 N2          49.6850    26.9790    11.6740 ns         1 IAV      -0.511900
      4 C11         48.9710    28.2340    11.6680 c3         1 IAV      -0.038300
      5 C12         49.9370    29.3920    11.3150 c          1 IAV       0.925600
      6 O2          49.3940    30.4870    11.0780 o          1 IAV      -0.833300
      7 O3          51.1580    29.1430    11.3240 o          1 IAV      -0.833300
      8 C13         48.2800    28.5180    13.0170 c3         1 IAV      -0.058700
      9 C14         49.2810    28.5850    14.1670 c3         1 IAV      -0.079600
     10 C15         47.1850    27.5040    13.3290 c3         1 IAV      -0.079600
     11 C9          50.2420    24.6690    11.2070 c3         1 IAV      -0.094200
     12 C2          51.3760    24.8050    12.1640 cc         1 IAV      -0.133400
     13 C1          52.7020    24.9480    11.8630 cd         1 IAV      -0.099100
     14 N1          53.4380    25.0400    13.0090 na         1 IAV      -0.174400
     15 C8          52.6060    24.9620    14.0880 ca         1 IAV      -0.046200
     16 C6          52.8840    25.0130    15.4540 ca         1 IAV      -0.153000
     17 C7          51.2910    24.8110    13.5950 ca         1 IAV      -0.087800
     18 C3          50.2300    24.7160    14.5020 ca         1 IAV      -0.061000
     19 C4          50.5010    24.7660    15.8550 ca         1 IAV      -0.170000
     20 C5          51.8170    24.9130    16.3250 ca         1 IAV      -0.116000
     21 HN2         50.6530    27.0370    11.9550 hn         1 IAV       0.335500
     22 H11         48.1980    28.1830    10.8960 h1         1 IAV       0.062700
     23 H13         47.8070    29.4980    12.9100 hc         1 IAV       0.062700
     24 H141        49.7840    27.6250    14.3020 hc         1 IAV       0.021033
     25 H142        48.7740    28.8190    15.1050 hc         1 IAV       0.021033
     26 H143        50.0440    29.3480    14.0120 hc         1 IAV       0.021033
     27 H151        46.6500    27.7900    14.2360 hc         1 IAV       0.021033
     28 H152        47.5970    26.5070    13.4970 hc         1 IAV       0.021033
     29 H153        46.4570    27.4300    12.5200 hc         1 IAV       0.021033
     30 HC91        50.6270    24.5470    10.1900 hc         1 IAV       0.057200
     31 HC92        49.6640    23.7660    11.4150 hc         1 IAV       0.057200
     32 HC1         53.1810    24.9900    10.8980 h4         1 IAV       0.162000
     33 HN1         54.4380    25.1430    13.0440 hn         1 IAV       0.292700
     34 HC6         53.8970    25.1290    15.8180 ha         1 IAV       0.120000
     35 HC3         49.2110    24.6060    14.1500 ha         1 IAV       0.141000
     36 HC4         49.6900    24.6960    16.5680 ha         1 IAV       0.121000
     37 HC5         51.9970    24.9500    17.3920 ha         1 IAV       0.115000
@<TRIPOS>BOND
     1     1     2 2   
     2     2     3 1   
     3     2    11 1   
     4     3     4 1   
     5     3    21 1   
     6     4     5 1   
     7     4     8 1   
     8     4    22 1   
     9     5     6 1   
    10     5     7 1   
    11     8     9 1   
    12     8    10 1   
    13     8    23 1   
    14     9    24 1   
    15     9    25 1   
    16     9    26 1   
    17    10    27 1   
    18    10    28 1   
    19    10    29 1   
    20    11    12 1   
    21    11    30 1   
    22    11    31 1   
    23    12    13 2   
    24    12    17 1   
    25    13    14 1   
    26    13    32 1   
    27    14    15 1   
    28    14    33 1   
    29    15    16 ar  
    30    15    17 ar  
    31    16    20 ar  
    32    16    34 1   
    33    17    18 ar  
    34    18    19 ar  
    35    18    35 1   
    36    19    20 ar  
    37    19    36 1   
    38    20    37 1   
@<TRIPOS>SUBSTRUCTURE
     1 IAV         1 TEMP              0 ****  ****    0 ROOT
