@<TRIPOS>MOLECULE
IAV
   37    38     1     0     0
SMALL
No Charge or Current Charge


@<TRIPOS>ATOM
      1 O1          48.3170    25.6750    12.0920 o          1 IAV      -0.668100
      2 C10         49.4000    26.0350    11.6450 c          1 IAV       0.590100
      3 N2          49.6420    27.3300    11.2380 ns         1 IAV      -0.444900
      4 C11         48.6930    28.4680    11.3410 c3         1 IAV      -0.038300
      5 C12         48.7770    29.3780    10.0720 c          1 IAV       0.715000
      6 O2          47.7500    29.9210     9.6890 o          1 IAV      -0.728000
      7 O3          49.8280    29.4250     9.4450 o          1 IAV      -0.728000
      8 C13         48.8780    29.2830    12.6590 c3         1 IAV      -0.058700
      9 C14         50.3070    29.8560    12.8300 c3         1 IAV      -0.079600
     10 C15         48.4500    28.4860    13.9140 c3         1 IAV      -0.079600
     11 C9          50.6010    25.0870    11.5130 c3         1 IAV      -0.094200
     12 C2          51.3910    24.9540    12.7910 cc         1 IAV      -0.133400
     13 C1          52.5930    25.5790    13.1090 cd         1 IAV      -0.149100
     14 N1          52.9990    25.1980    14.4110 na         1 IAV      -0.224700
     15 C8          52.0230    24.3360    14.8760 ca         1 IAV      -0.046200
     16 C6          51.9700    23.6900    16.1190 ca         1 IAV      -0.135000
     17 C7          51.0440    24.1630    13.9380 ca         1 IAV      -0.087800
     18 C3          49.9360    23.3350    14.1700 ca         1 IAV      -0.043000
     19 C4          49.8550    22.6710    15.4130 ca         1 IAV      -0.152000
     20 C5          50.8690    22.8480    16.3840 ca         1 IAV      -0.098000
     21 HN2         50.5600    27.5190    10.8520 hn         1 IAV       0.335500
     22 H11         47.6750    28.0580    11.3400 h1         1 IAV       0.062700
     23 H13         48.1970    30.1410    12.5950 hc         1 IAV       0.062700
     24 H141        51.0480    29.0520    12.9220 hc         1 IAV       0.021033
     25 H142        50.3660    30.4750    13.7340 hc         1 IAV       0.021033
     26 H143        50.5840    30.4860    11.9770 hc         1 IAV       0.021033
     27 H151        48.4670    29.1280    14.8020 hc         1 IAV       0.021033
     28 H152        49.1240    27.6410    14.0950 hc         1 IAV       0.021033
     29 H153        47.4300    28.0980    13.7990 hc         1 IAV       0.021033
     30 HC91        51.2800    25.4720    10.7430 hc         1 IAV       0.057200
     31 HC92        50.2380    24.0970    11.2150 hc         1 IAV       0.057200
     32 HC1         53.1850    26.2640    12.5070 h4         1 IAV       0.212000
     33 HN1         53.8350    25.4970    14.9050 hn         1 IAV       0.343000
     34 HC6         52.7530    23.8330    16.8590 ha         1 IAV       0.102000
     35 HC3         49.1620    23.2080    13.4170 ha         1 IAV       0.123000
     36 HC4         49.0090    22.0220    15.6250 ha         1 IAV       0.103000
     37 HC5         50.7990    22.3330    17.3400 ha         1 IAV       0.097000
@<TRIPOS>BOND
     1     1     2 2   
     2     2     3 1   
     3     2    11 1   
     4     3     4 1   
     5     3    21 1   
     6     4     5 1   
     7     4     8 1   
     8     4    22 1   
     9     5     6 1   
    10     5     7 1   
    11     8     9 1   
    12     8    10 1   
    13     8    23 1   
    14     9    24 1   
    15     9    25 1   
    16     9    26 1   
    17    10    27 1   
    18    10    28 1   
    19    10    29 1   
    20    11    12 1   
    21    11    30 1   
    22    11    31 1   
    23    12    13 2   
    24    12    17 1   
    25    13    14 1   
    26    13    32 1   
    27    14    15 1   
    28    14    33 1   
    29    15    16 ar  
    30    15    17 ar  
    31    16    20 ar  
    32    16    34 1   
    33    17    18 ar  
    34    18    19 ar  
    35    18    35 1   
    36    19    20 ar  
    37    19    36 1   
    38    20    37 1   
@<TRIPOS>SUBSTRUCTURE
     1 IAV         1 TEMP              0 ****  ****    0 ROOT
