@<TRIPOS>MOLECULE
IAW
   21    23     1     0     0
SMALL
No Charge or Current Charge


@<TRIPOS>ATOM
      1 C4          13.5950   -15.3630   -11.3530 ca         1 IAW      -0.055000
      2 C5          14.5280   -15.2200   -10.3170 ca         1 IAW      -0.046200
      3 C6          14.1350   -14.9020    -9.0210 ca         1 IAW      -0.129000
      4 C7          12.7800   -14.7110    -8.7110 ca         1 IAW      -0.160000
      5 C8          16.5460   -15.1130    -9.2420 cc         1 IAW       0.432800
      6 C9          16.7180   -14.9770   -11.4160 cc         1 IAW       0.397400
      7 N1          17.7410   -14.6070    -9.4860 nd         1 IAW      -0.319000
      8 N2          17.8780   -14.5970   -10.8720 nd         1 IAW      -0.349000
      9 C3          12.2300   -15.1760   -11.0520 ca         1 IAW      -0.127000
     10 N3          15.8930   -15.3750   -10.3960 na         1 IAW      -0.251800
     11 C1           9.9370   -14.3510    -8.2230 c3         1 IAW       0.145900
     12 C2          11.8170   -14.8520    -9.7420 ca         1 IAW       0.152100
     13 S1          15.5040   -14.7290    -7.8640 ss         1 IAW       0.030700
     14 H1          13.9090   -15.6190   -12.3630 ha         1 IAW       0.131000
     15 H2          12.4970   -14.4550    -7.6940 ha         1 IAW       0.135000
     16 H3          16.4400   -14.9790   -12.4630 h5         1 IAW       0.071100
     17 H4          11.4860   -15.2830   -11.8370 ha         1 IAW       0.138000
     18 H5           8.8440   -14.2630    -8.2680 h1         1 IAW       0.046367
     19 H6          10.1850   -15.1290    -7.4900 h1         1 IAW       0.046367
     20 H7          10.3390   -13.3930    -7.8700 h1         1 IAW       0.046367
     21 O1          10.4650   -14.6820    -9.5190 os         1 IAW      -0.335100
@<TRIPOS>BOND
     1     1     2 ar  
     2     1     9 ar  
     3     1    14 1   
     4     2     3 ar  
     5     2    10 1   
     6     3     4 ar  
     7     3    13 1   
     8     4    12 ar  
     9     4    15 1   
    10     5     7 2   
    11     5    10 1   
    12     5    13 1   
    13     6     8 2   
    14     6    10 1   
    15     6    16 1   
    16     7     8 1   
    17     9    12 ar  
    18     9    17 1   
    19    11    18 1   
    20    11    19 1   
    21    11    20 1   
    22    11    21 1   
    23    12    21 1   
@<TRIPOS>SUBSTRUCTURE
     1 IAW         1 TEMP              0 ****  ****    0 ROOT
