@<TRIPOS>MOLECULE
IAW
   21    23     1     0     0
SMALL
bcc


@<TRIPOS>ATOM
      1 C4          13.5220   -15.1650   -11.3640 ca         1 IAW      -0.073000
      2 C5          14.4640   -14.9800   -10.3650 ca         1 IAW      -0.046200
      3 C6          14.0690   -14.7200    -9.0570 ca         1 IAW      -0.002100
      4 C7          12.7290   -14.6350    -8.7090 ca         1 IAW      -0.178000
      5 C8          16.5120   -14.7900    -9.2970 cc         1 IAW       0.432800
      6 C9          16.8330   -15.1940   -11.3790 cc         1 IAW       0.397400
      7 N1          17.7990   -14.8310    -9.4700 nd         1 IAW      -0.319000
      8 N2          17.9920   -15.0880   -10.7940 nd         1 IAW      -0.349000
      9 C3          12.1850   -15.0840   -11.0300 ca         1 IAW      -0.145000
     10 N3          15.8510   -15.0110   -10.4600 na         1 IAW      -0.251800
     11 C1           9.9800   -14.4920    -8.2040 c3         1 IAW       0.122700
     12 C2          11.7810   -14.8180    -9.7130 ca         1 IAW       0.152100
     13 S1          15.4350   -14.5230    -7.9630 ss         1 IAW      -0.096200
     14 H1          13.8220   -15.3690   -12.3830 ha         1 IAW       0.149000
     15 H2          12.4500   -14.4310    -7.6840 ha         1 IAW       0.153000
     16 H3          16.6580   -15.3950   -12.4230 h5         1 IAW       0.071100
     17 H4          11.4310   -15.2250   -11.7930 ha         1 IAW       0.156000
     18 H5           8.8950   -14.4830    -8.2700 h1         1 IAW       0.046367
     19 H6          10.2830   -15.2670    -7.4960 h1         1 IAW       0.046367
     20 H7          10.3190   -13.5210    -7.8350 h1         1 IAW       0.046367
     21 O1          10.4570   -14.7560    -9.5100 os         1 IAW      -0.311900
@<TRIPOS>BOND
     1     1     2 ar  
     2     1     9 ar  
     3     1    14 1   
     4     2     3 ar  
     5     2    10 1   
     6     3     4 ar  
     7     3    13 1   
     8     4    12 ar  
     9     4    15 1   
    10     5     7 2   
    11     5    10 1   
    12     5    13 1   
    13     6     8 2   
    14     6    10 1   
    15     6    16 1   
    16     7     8 1   
    17     9    12 ar  
    18     9    17 1   
    19    11    18 1   
    20    11    19 1   
    21    11    20 1   
    22    11    21 1   
    23    12    21 1   
@<TRIPOS>SUBSTRUCTURE
     1 IAW         1 TEMP              0 ****  ****    0 ROOT
