@<TRIPOS>MOLECULE
IAY
   52    55     1     0     0
SMALL
No Charge or Current Charge


@<TRIPOS>ATOM
      1 C11         30.3390   -41.3360   -17.3300 c6         1 IAY       0.143100
      2 C13         29.5090   -46.7080   -12.5880 c3         1 IAY      -0.125700
      3 C15         30.8530   -48.6920   -11.6870 c2         1 IAY       0.591200
      4 C17         30.7970   -49.8720    -9.6900 c5         1 IAY       0.170800
      5 C18         32.2240   -49.3580   -10.0640 c5         1 IAY       0.148800
      6 C21         32.7730   -48.6410    -8.8270 ca         1 IAY      -0.069300
      7 C22         32.2650   -47.3870    -8.4220 ca         1 IAY      -0.096500
      8 C23         32.7750   -46.7430    -7.2810 ca         1 IAY      -0.113500
      9 C24         33.8000   -47.3430    -6.5330 ca         1 IAY      -0.109000
     10 C25         34.3140   -48.5890    -6.9280 ca         1 IAY      -0.113500
     11 C26         33.8040   -49.2330    -8.0680 ca         1 IAY      -0.096500
     12 C1          29.1540   -44.5310   -15.5380 ca         1 IAY       0.621900
     13 C2          27.8950   -44.8680   -16.0730 ca         1 IAY      -0.228000
     14 C3          27.1190   -45.8510   -15.4430 ca         1 IAY      -0.037000
     15 C4          27.6410   -46.4580   -14.2940 ca         1 IAY      -0.216000
     16 C5          28.9040   -46.0630   -13.8240 ca         1 IAY       0.398300
     17 N6          29.6480   -45.1190   -14.4350 nb         1 IAY      -0.753000
     18 N7          29.9920   -43.5490   -16.1100 nh         1 IAY      -0.768300
     19 C8          31.4890   -43.7230   -16.1210 c6         1 IAY       0.176300
     20 C9          32.2530   -42.3820   -16.3280 c6         1 IAY       0.143100
     21 O10         31.7390   -41.6660   -17.4740 os         1 IAY      -0.443000
     22 C12         29.4770   -42.6240   -17.1760 c6         1 IAY       0.176300
     23 C14         30.2750   -48.0140   -12.9160 c3         1 IAY      -0.106700
     24 N16         30.1000   -49.5820   -10.9500 nh         1 IAY      -0.776600
     25 N19         32.0470   -48.4830   -11.2650 n2         1 IAY      -0.628900
     26 H35         30.2090   -40.6920   -16.4480 h1         1 IAY       0.053950
     27 H34         30.0090   -40.7710   -18.2130 h1         1 IAY       0.053950
     28 H39         30.1910   -46.0100   -12.0880 hc         1 IAY       0.058200
     29 H38         28.7160   -46.9250   -11.8630 hc         1 IAY       0.058200
     30 H1          30.3550   -49.3020    -8.8610 h1         1 IAY       0.049700
     31 H42         30.7870   -50.9390    -9.4290 h1         1 IAY       0.049700
     32 H2          32.8720   -50.2040   -10.3330 h1         1 IAY       0.072700
     33 H44         28.3540   -50.6880   -10.4550 h1         1 IAY       0.035700
     34 H43         28.0430   -49.0850   -11.1610 h1         1 IAY       0.035700
     35 H45         28.6000   -50.4270   -12.1960 h1         1 IAY       0.035700
     36 H46         31.4700   -46.9120    -8.9930 ha         1 IAY       0.113500
     37 H47         32.3740   -45.7770    -6.9780 ha         1 IAY       0.111000
     38 H48         34.1950   -46.8450    -5.6510 ha         1 IAY       0.110000
     39 H49         35.1090   -49.0560    -6.3500 ha         1 IAY       0.111000
     40 H50         34.2100   -50.1990    -8.3620 ha         1 IAY       0.113500
     41 H27         27.5200   -44.3900   -16.9710 ha         1 IAY       0.121000
     42 H28         26.1440   -46.1360   -15.8360 ha         1 IAY       0.114000
     43 H29         27.0770   -47.2270   -13.7740 ha         1 IAY       0.121000
     44 H31         31.8500   -44.1600   -15.1790 h1         1 IAY       0.056700
     45 H30         31.7740   -44.4160   -16.9260 h1         1 IAY       0.056700
     46 H33         32.1490   -41.7520   -15.4330 h1         1 IAY       0.053950
     47 H32         33.3220   -42.5820   -16.4790 h1         1 IAY       0.053950
     48 H36         29.4480   -43.1470   -18.1430 h1         1 IAY       0.056700
     49 H37         28.4500   -42.3070   -16.9430 h1         1 IAY       0.056700
     50 H40         29.6180   -48.7020   -13.4580 hc         1 IAY       0.073200
     51 H41         31.0900   -47.7770   -13.6100 hc         1 IAY       0.073200
     52 C20         28.6970   -49.9640   -11.2060 c3         1 IAY       0.211100
@<TRIPOS>BOND
     1     1    21 1   
     2     1    22 1   
     3     1    26 1   
     4     1    27 1   
     5     2    16 1   
     6     2    23 1   
     7     2    28 1   
     8     2    29 1   
     9     3    23 1   
    10     3    24 1   
    11     3    25 2   
    12     4     5 1   
    13     4    24 1   
    14     4    30 1   
    15     4    31 1   
    16     5     6 1   
    17     5    25 1   
    18     5    32 1   
    19     6     7 ar  
    20     6    11 ar  
    21     7     8 ar  
    22     7    36 1   
    23     8     9 ar  
    24     8    37 1   
    25     9    10 ar  
    26     9    38 1   
    27    10    11 ar  
    28    10    39 1   
    29    11    40 1   
    30    12    13 ar  
    31    12    17 ar  
    32    12    18 1   
    33    13    14 ar  
    34    13    41 1   
    35    14    15 ar  
    36    14    42 1   
    37    15    16 ar  
    38    15    43 1   
    39    16    17 ar  
    40    18    19 1   
    41    18    22 1   
    42    19    20 1   
    43    19    44 1   
    44    19    45 1   
    45    20    21 1   
    46    20    46 1   
    47    20    47 1   
    48    22    48 1   
    49    22    49 1   
    50    23    50 1   
    51    23    51 1   
    52    24    52 1   
    53    33    52 1   
    54    34    52 1   
    55    35    52 1   
@<TRIPOS>SUBSTRUCTURE
     1 IAY         1 TEMP              0 ****  ****    0 ROOT
