@<TRIPOS>MOLECULE
IAY
   52    55     1     0     0
SMALL
bcc


@<TRIPOS>ATOM
      1 C11         30.7060   -41.8390   -17.3440 c6         1 IAY       0.119900
      2 C13         29.1350   -46.8530   -12.5460 c3         1 IAY      -0.125700
      3 C15         30.8210   -48.5840   -11.8570 c2         1 IAY       0.591200
      4 C17         30.9880   -49.8940   -10.0150 c5         1 IAY       0.170800
      5 C18         32.2880   -49.1080   -10.2930 c5         1 IAY       0.148800
      6 C21         32.8160   -48.3980    -9.0740 ca         1 IAY      -0.069300
      7 C22         32.2590   -47.1940    -8.6480 ca         1 IAY      -0.114500
      8 C23         32.7190   -46.5700    -7.4970 ca         1 IAY      -0.131500
      9 C24         33.7460   -47.1400    -6.7540 ca         1 IAY      -0.127000
     10 C25         34.3100   -48.3380    -7.1730 ca         1 IAY      -0.131500
     11 C26         33.8470   -48.9580    -8.3270 ca         1 IAY      -0.114500
     12 C1          29.0920   -44.5320   -15.3670 ca         1 IAY       0.687200
     13 C2          27.7820   -44.6260   -15.8790 ca         1 IAY      -0.311300
     14 C3          26.8920   -45.4670   -15.2470 ca         1 IAY      -0.055000
     15 C4          27.2890   -46.2080   -14.1380 ca         1 IAY      -0.299300
     16 C5          28.5990   -46.0670   -13.7110 ca         1 IAY       0.463600
     17 N6          29.4650   -45.2570   -14.3140 nb         1 IAY      -0.753000
     18 N7          30.0340   -43.6850   -15.8980 nh         1 IAY      -0.768300
     19 C8          31.4360   -43.9020   -15.5840 c6         1 IAY       0.176300
     20 C9          32.2300   -42.6320   -15.8050 c6         1 IAY       0.119900
     21 O10         32.0620   -42.1270   -17.1100 os         1 IAY      -0.396600
     22 C12         29.8210   -43.0640   -17.1920 c6         1 IAY       0.176300
     23 C14         30.1630   -47.8960   -13.0080 c3         1 IAY      -0.106700
     24 N16         30.2510   -49.6660   -11.2430 nh         1 IAY      -0.776600
     25 N19         31.9540   -48.2070   -11.3920 n2         1 IAY      -0.628900
     26 H35         30.3560   -41.0560   -16.6560 h1         1 IAY       0.053950
     27 H34         30.6180   -41.4550   -18.3620 h1         1 IAY       0.053950
     28 H39         29.6170   -46.1710   -11.8420 hc         1 IAY       0.058200
     29 H38         28.3120   -47.3340   -12.0160 hc         1 IAY       0.058200
     30 H1          30.4390   -49.4890    -9.1540 h1         1 IAY       0.049700
     31 H42         31.1620   -50.9560    -9.8330 h1         1 IAY       0.049700
     32 H2          33.0630   -49.8030   -10.6390 h1         1 IAY       0.072700
     33 H44         28.7380   -51.0790   -11.0880 h1         1 IAY       0.035700
     34 H43         28.2560   -49.4590   -10.5690 h1         1 IAY       0.035700
     35 H45         28.4500   -49.8320   -12.2900 h1         1 IAY       0.035700
     36 H46         31.4620   -46.7390    -9.2240 ha         1 IAY       0.131500
     37 H47         32.2780   -45.6330    -7.1800 ha         1 IAY       0.129000
     38 H48         34.1060   -46.6520    -5.8580 ha         1 IAY       0.128000
     39 H49         35.1140   -48.7880    -6.6050 ha         1 IAY       0.129000
     40 H50         34.2980   -49.8900    -8.6510 ha         1 IAY       0.131500
     41 H27         27.4590   -44.0690   -16.7450 ha         1 IAY       0.139000
     42 H28         25.8810   -45.5510   -15.6250 ha         1 IAY       0.132000
     43 H29         26.6070   -46.8770   -13.6310 ha         1 IAY       0.139000
     44 H31         31.5360   -44.2040   -14.5440 h1         1 IAY       0.056700
     45 H30         31.8480   -44.7130   -16.2010 h1         1 IAY       0.056700
     46 H33         31.9310   -41.8790   -15.0620 h1         1 IAY       0.053950
     47 H32         33.2920   -42.8370   -15.6650 h1         1 IAY       0.053950
     48 H36         30.0120   -43.7750   -18.0070 h1         1 IAY       0.056700
     49 H37         28.7920   -42.7230   -17.2900 h1         1 IAY       0.056700
     50 H40         29.6870   -48.6210   -13.6720 hc         1 IAY       0.073200
     51 H41         30.9420   -47.3940   -13.5810 hc         1 IAY       0.073200
     52 C20         28.8560   -50.0160   -11.2970 c3         1 IAY       0.211100
@<TRIPOS>BOND
     1     1    21 1   
     2     1    22 1   
     3     1    26 1   
     4     1    27 1   
     5     2    16 1   
     6     2    23 1   
     7     2    28 1   
     8     2    29 1   
     9     3    23 1   
    10     3    24 1   
    11     3    25 2   
    12     4     5 1   
    13     4    24 1   
    14     4    30 1   
    15     4    31 1   
    16     5     6 1   
    17     5    25 1   
    18     5    32 1   
    19     6     7 ar  
    20     6    11 ar  
    21     7     8 ar  
    22     7    36 1   
    23     8     9 ar  
    24     8    37 1   
    25     9    10 ar  
    26     9    38 1   
    27    10    11 ar  
    28    10    39 1   
    29    11    40 1   
    30    12    13 ar  
    31    12    17 ar  
    32    12    18 1   
    33    13    14 ar  
    34    13    41 1   
    35    14    15 ar  
    36    14    42 1   
    37    15    16 ar  
    38    15    43 1   
    39    16    17 ar  
    40    18    19 1   
    41    18    22 1   
    42    19    20 1   
    43    19    44 1   
    44    19    45 1   
    45    20    21 1   
    46    20    46 1   
    47    20    47 1   
    48    22    48 1   
    49    22    49 1   
    50    23    50 1   
    51    23    51 1   
    52    24    52 1   
    53    33    52 1   
    54    34    52 1   
    55    35    52 1   
@<TRIPOS>SUBSTRUCTURE
     1 IAY         1 TEMP              0 ****  ****    0 ROOT
