@<TRIPOS>MOLECULE
IAZ
   38    41     1     0     0
SMALL
bcc


@<TRIPOS>ATOM
      1 N1          16.4350    64.4940    36.7580 na         1 IAZ      -0.300300
      2 N3          18.0270    63.7170    35.1630 nu         1 IAZ      -0.826200
      3 C4          15.1810    64.7020    38.9340 ca         1 IAZ      -0.138000
      4 C5          16.1190    64.1840    38.0590 ca         1 IAZ      -0.081200
      5 C6          16.9890    63.1320    38.3960 ca         1 IAZ       0.105400
      6 C7          17.4410    63.6530    36.3810 cc         1 IAZ       0.651700
      7 C8          14.4590    65.6860    41.8320 ca         1 IAZ       0.136100
      8 C10         15.8640    67.4560    42.6390 ca         1 IAZ      -0.097500
      9 C13         13.4050    66.1780    42.5990 ca         1 IAZ      -0.180000
     10 C15         18.2990    64.4350    32.8630 cc         1 IAZ       0.205000
     11 C17         19.6900    64.8940    31.1840 cd         1 IAZ      -0.272300
     12 C1          16.9200    62.5770    39.6690 ca         1 IAZ      -0.078000
     13 C11         14.8210    67.9560    43.4050 ca         1 IAZ      -0.163000
     14 C12         13.5920    67.3070    43.3800 ca         1 IAZ      -0.097500
     15 C14         17.3890    64.3710    34.0320 c3         1 IAZ       0.197500
     16 C16         19.3880    63.5760    31.1810 cc         1 IAZ       0.248600
     17 C18         18.9780    65.4560    32.2870 cd         1 IAZ      -0.230300
     18 C2          15.9900    63.0860    40.5670 ca         1 IAZ      -0.147000
     19 C3          15.1380    64.1250    40.1970 ca         1 IAZ       0.096100
     20 C9          15.6940    66.3240    41.8510 ca         1 IAZ      -0.180000
     21 N2          17.7980    62.8210    37.3290 nd         1 IAZ      -0.639100
     22 O1          14.1990    64.5690    41.1010 os         1 IAZ      -0.255200
     23 O2          18.5440    63.2870    32.1920 os         1 IAZ      -0.329800
     24 H1          16.0020    65.2150    36.2030 hn         1 IAZ       0.305700
     25 H2          18.5980    62.9120    34.9530 hn         1 IAZ       0.455800
     26 H3          14.5140    65.5090    38.6590 ha         1 IAZ       0.148000
     27 H4          16.8280    67.9490    42.6500 ha         1 IAZ       0.130000
     28 H5          12.4470    65.6750    42.5780 ha         1 IAZ       0.144500
     29 H6          20.3370    65.4060    30.4910 ha         1 IAZ       0.165000
     30 H7          17.5760    61.7660    39.9580 ha         1 IAZ       0.150000
     31 H8          14.9620    68.8390    44.0140 ha         1 IAZ       0.132000
     32 H9          12.7670    67.6830    43.9710 ha         1 IAZ       0.130000
     33 H10         17.1460    65.4010    34.2960 h1         1 IAZ       0.052200
     34 H11         16.4500    63.8770    33.7570 h1         1 IAZ       0.052200
     35 H12         19.6820    62.7560    30.5460 h4         1 IAZ       0.056100
     36 H13         18.9720    66.4850    32.6100 ha         1 IAZ       0.163000
     37 H14         15.9160    62.6710    41.5640 ha         1 IAZ       0.148000
     38 H15         16.5240    65.9540    41.2630 ha         1 IAZ       0.144500
@<TRIPOS>BOND
     1     1     4 1   
     2     1     6 1   
     3     1    24 1   
     4     2     6 1   
     5     2    15 1   
     6     2    25 1   
     7     3     4 ar  
     8     3    19 ar  
     9     3    26 1   
    10     4     5 ar  
    11     5    12 ar  
    12     5    21 1   
    13     6    21 2   
    14     7     9 ar  
    15     7    20 ar  
    16     7    22 1   
    17     8    13 ar  
    18     8    20 ar  
    19     8    27 1   
    20     9    14 ar  
    21     9    28 1   
    22    10    15 1   
    23    10    17 2   
    24    10    23 1   
    25    11    16 2   
    26    11    17 1   
    27    11    29 1   
    28    12    18 ar  
    29    12    30 1   
    30    13    14 ar  
    31    13    31 1   
    32    14    32 1   
    33    15    33 1   
    34    15    34 1   
    35    16    23 1   
    36    16    35 1   
    37    17    36 1   
    38    18    19 ar  
    39    18    37 1   
    40    19    22 1   
    41    20    38 1   
@<TRIPOS>SUBSTRUCTURE
     1 IAZ         1 TEMP              0 ****  ****    0 ROOT
