@<TRIPOS>MOLECULE
IAZ
   38    41     1     0     0
SMALL
No Charge or Current Charge


@<TRIPOS>ATOM
      1 N1          16.5900    64.5890    37.0850 na         1 IAZ      -0.350600
      2 N3          17.8970    63.8160    35.2040 nu         1 IAZ      -0.881400
      3 C4          15.5660    64.5870    39.3710 ca         1 IAZ      -0.120000
      4 C5          16.3420    64.0810    38.3230 ca         1 IAZ      -0.081200
      5 C6          17.0200    62.8950    38.4000 ca         1 IAZ       0.105400
      6 C7          17.4160    63.6810    36.4580 cc         1 IAZ       0.651700
      7 C8          14.6430    65.5640    42.0020 ca         1 IAZ       0.136100
      8 C10         15.6240    67.7690    42.3490 ca         1 IAZ      -0.079500
      9 C13         13.4060    66.0430    42.4660 ca         1 IAZ      -0.162000
     10 C15         18.2610    64.6470    32.9170 cc         1 IAZ       0.095300
     11 C17         19.6470    64.6740    31.1660 cd         1 IAZ      -0.189000
     12 C1          16.9610    62.1150    39.5640 ca         1 IAZ      -0.060000
     13 C11         14.3820    68.2480    42.8000 ca         1 IAZ      -0.145000
     14 C12         13.2730    67.3860    42.8620 ca         1 IAZ      -0.079500
     15 C14         17.5210    64.8430    34.2180 c3         1 IAZ       0.197500
     16 C16         18.6580    63.7580    30.9280 cc         1 IAZ       0.138900
     17 C18         19.3960    65.2390    32.4320 cd         1 IAZ      -0.147000
     18 C2          16.1880    62.5880    40.6490 ca         1 IAZ      -0.129000
     19 C3          15.5020    63.8230    40.5600 ca         1 IAZ       0.096100
     20 C9          15.7570    66.4260    41.9530 ca         1 IAZ      -0.162000
     21 N2          17.7100    62.6260    37.2180 nd         1 IAZ      -0.639100
     22 O1          14.7500    64.2420    41.6340 os         1 IAZ      -0.255200
     23 O2          17.7940    63.7280    32.0010 os         1 IAZ      -0.241000
     24 H1          16.2530    65.4520    36.6880 hn         1 IAZ       0.356000
     25 H2          18.4220    63.0030    34.8900 hn         1 IAZ       0.511000
     26 H3          15.0310    65.5290    39.2710 ha         1 IAZ       0.130000
     27 H4          16.4830    68.4360    42.3090 ha         1 IAZ       0.112000
     28 H5          12.5510    65.3740    42.5150 ha         1 IAZ       0.126500
     29 H6          20.4690    64.9120    30.4980 ha         1 IAZ       0.147000
     30 H7          17.4940    61.1700    39.6260 ha         1 IAZ       0.132000
     31 H8          14.2790    69.2870    43.1070 ha         1 IAZ       0.114000
     32 H9          12.3130    67.7570    43.2160 ha         1 IAZ       0.112000
     33 H10         17.7520    65.8430    34.6090 h1         1 IAZ       0.052200
     34 H11         16.4410    64.8010    34.0220 h1         1 IAZ       0.052200
     35 H12         18.4590    63.0990    30.0930 h4         1 IAZ       0.056100
     36 H13         19.9860    65.9990    32.9360 ha         1 IAZ       0.145000
     37 H14         16.1240    62.0020    41.5620 ha         1 IAZ       0.130000
     38 H15         16.7220    66.0570    41.6150 ha         1 IAZ       0.126500
@<TRIPOS>BOND
     1     1     4 1   
     2     1     6 1   
     3     1    24 1   
     4     2     6 1   
     5     2    15 1   
     6     2    25 1   
     7     3     4 ar  
     8     3    19 ar  
     9     3    26 1   
    10     4     5 ar  
    11     5    12 ar  
    12     5    21 1   
    13     6    21 2   
    14     7     9 ar  
    15     7    20 ar  
    16     7    22 1   
    17     8    13 ar  
    18     8    20 ar  
    19     8    27 1   
    20     9    14 ar  
    21     9    28 1   
    22    10    15 1   
    23    10    17 2   
    24    10    23 1   
    25    11    16 2   
    26    11    17 1   
    27    11    29 1   
    28    12    18 ar  
    29    12    30 1   
    30    13    14 ar  
    31    13    31 1   
    32    14    32 1   
    33    15    33 1   
    34    15    34 1   
    35    16    23 1   
    36    16    35 1   
    37    17    36 1   
    38    18    19 ar  
    39    18    37 1   
    40    19    22 1   
    41    20    38 1   
@<TRIPOS>SUBSTRUCTURE
     1 IAZ         1 TEMP              0 ****  ****    0 ROOT
