@<TRIPOS>MOLECULE
IB1
   39    41     1     0     0
SMALL
No Charge or Current Charge


@<TRIPOS>ATOM
      1 C01          0.2120     3.4290    -0.0580 ca         1 IB1      -0.216000
      2 C02          0.8920     2.1990    -0.2010 ca         1 IB1       0.096500
      3 N03          0.1910     1.0400    -0.2490 nb         1 IB1      -0.219000
      4 C04         -1.1460     1.1180    -0.1330 ca         1 IB1       0.381900
      5 N05         -1.8730     2.2430    -0.0000 nb         1 IB1      -0.215000
      6 C06         -1.1880     3.4020     0.0410 ca         1 IB1       0.142900
      7 C07          2.4040     2.1460    -0.3340 c          1 IB1       0.511200
      8 O08          3.0710     3.1630    -0.4910 o          1 IB1      -0.478100
      9 C09          3.0850     0.8180    -0.2550 ca         1 IB1      -0.289600
     10 C10          3.8440     0.3470    -1.3350 ca         1 IB1       0.289000
     11 C11          4.4830    -0.8970    -1.2650 ca         1 IB1      -0.259000
     12 C12          4.3780    -1.6820    -0.1120 ca         1 IB1       0.224100
     13 C13          3.6260    -1.2120     0.9800 ca         1 IB1      -0.259000
     14 C14          2.9870     0.0320     0.9030 ca         1 IB1       0.289000
     15 F15          2.2940     0.4800     1.9730 f          1 IB1      -0.158000
     16 O16          5.0300    -2.8970    -0.1000 os         1 IB1      -0.328100
     17 N17         -1.8090    -0.1010    -0.2160 nu         1 IB1      -0.924900
     18 C18         -3.1320    -0.5130    -0.0330 ca         1 IB1       0.346000
     19 C19         -4.0210     0.1680     0.8190 ca         1 IB1      -0.165500
     20 C20         -5.3410    -0.2890     0.9870 ca         1 IB1      -0.038500
     21 C21         -5.7810    -1.4400     0.3070 ca         1 IB1      -0.059000
     22 C22         -4.8900    -2.1320    -0.5340 ca         1 IB1      -0.038500
     23 C23         -3.5710    -1.6700    -0.6960 ca         1 IB1      -0.165500
     24 C24         -7.1290    -1.9090     0.4760 cg         1 IB1       0.331000
     25 N25         -8.2200    -2.3000     0.6160 n1         1 IB1      -0.460000
     26 F26          3.9480     1.0770    -2.4670 f          1 IB1      -0.158000
     27 C27          4.9860    -3.7800     1.0350 c3         1 IB1       0.145900
     28 H1           0.7490     4.3740    -0.0260 ha         1 IB1       0.156000
     29 H2          -1.7690     4.3160     0.1510 h4         1 IB1       0.031100
     30 H3           5.0620    -1.2530    -2.1120 ha         1 IB1       0.149500
     31 H4           3.5290    -1.7880     1.8940 ha         1 IB1       0.149500
     32 H5          -1.1980    -0.8450    -0.5520 hn         1 IB1       0.514000
     33 H6          -3.6950     1.0420     1.3720 ha         1 IB1       0.136000
     34 H7          -6.0170     0.2500     1.6490 ha         1 IB1       0.125500
     35 H8          -5.2160    -3.0270    -1.0620 ha         1 IB1       0.125500
     36 H9          -2.8930    -2.2130    -1.3490 ha         1 IB1       0.136000
     37 H10          5.4110    -3.2960     1.9230 h1         1 IB1       0.050033
     38 H11          3.9540    -4.0810     1.2560 h1         1 IB1       0.050033
     39 H12          5.5680    -4.6880     0.8320 h1         1 IB1       0.050033
@<TRIPOS>BOND
     1     1     2 ar  
     2     1     6 ar  
     3     1    28 1   
     4     2     3 ar  
     5     2     7 1   
     6     3     4 ar  
     7     4     5 ar  
     8     4    17 1   
     9     5     6 ar  
    10     6    29 1   
    11     7     8 2   
    12     7     9 1   
    13     9    10 ar  
    14     9    14 ar  
    15    10    11 ar  
    16    10    26 1   
    17    11    12 ar  
    18    11    30 1   
    19    12    13 ar  
    20    12    16 1   
    21    13    14 ar  
    22    13    31 1   
    23    14    15 1   
    24    16    27 1   
    25    17    18 1   
    26    17    32 1   
    27    18    19 ar  
    28    18    23 ar  
    29    19    20 ar  
    30    19    33 1   
    31    20    21 ar  
    32    20    34 1   
    33    21    22 ar  
    34    21    24 1   
    35    22    23 ar  
    36    22    35 1   
    37    23    36 1   
    38    24    25 3   
    39    27    37 1   
    40    27    38 1   
    41    27    39 1   
@<TRIPOS>SUBSTRUCTURE
     1 IB1         1 TEMP              0 ****  ****    0 ROOT
