@<TRIPOS>MOLECULE
IB1
   39    41     1     0     0
SMALL
bcc


@<TRIPOS>ATOM
      1 C01          0.2600     3.3450     0.2370 ca         1 IB1      -0.364600
      2 C02          0.8530     2.1470    -0.1350 ca         1 IB1       0.424800
      3 N03          0.1730     1.0230    -0.2540 nb         1 IB1      -0.745000
      4 C04         -1.1340     1.0780     0.0020 ca         1 IB1       0.907900
      5 N05         -1.8000     2.1630     0.3790 nb         1 IB1      -0.741000
      6 C06         -1.0980     3.2800     0.4940 ca         1 IB1       0.471200
      7 C07          2.3140     2.0950    -0.4810 c          1 IB1       0.511200
      8 O08          2.8710     3.0940    -0.8680 o          1 IB1      -0.478100
      9 C09          3.0040     0.7900    -0.3820 ca         1 IB1      -0.289600
     10 C10          3.8730     0.3400    -1.3770 ca         1 IB1       0.253900
     11 C11          4.5410    -0.8560    -1.3140 ca         1 IB1      -0.277000
     12 C12          4.3710    -1.6640    -0.1850 ca         1 IB1       0.224100
     13 C13          3.5330    -1.2520     0.8510 ca         1 IB1      -0.277000
     14 C14          2.8760    -0.0480     0.7180 ca         1 IB1       0.253900
     15 F15          2.1090     0.3570     1.7320 f          1 IB1      -0.122900
     16 O16          5.0510    -2.8070    -0.1780 os         1 IB1      -0.304900
     17 N17         -1.7790    -0.1150    -0.1490 nu         1 IB1      -0.731300
     18 C18         -3.1040    -0.4700     0.0020 ca         1 IB1       0.207600
     19 C19         -4.1420     0.4130     0.3220 ca         1 IB1      -0.183500
     20 C20         -5.4360    -0.0570     0.4410 ca         1 IB1      -0.056500
     21 C21         -5.7290    -1.4050     0.2470 ca         1 IB1      -0.059000
     22 C22         -4.6970    -2.2910    -0.0740 ca         1 IB1      -0.056500
     23 C23         -3.4080    -1.8270    -0.1940 ca         1 IB1      -0.183500
     24 C24         -7.0660    -1.8750     0.3750 cg         1 IB1       0.241800
     25 N25         -8.1510    -2.2520     0.4790 n1         1 IB1      -0.370800
     26 F26          4.0280     1.0910    -2.4670 f          1 IB1      -0.122900
     27 C27          4.9170    -3.6830     0.9310 c3         1 IB1       0.122700
     28 H1           0.8150     4.2660     0.3350 ha         1 IB1       0.174000
     29 H2          -1.6450     4.1630     0.8060 h4         1 IB1       0.031100
     30 H3           5.1850    -1.1690    -2.1250 ha         1 IB1       0.167500
     31 H4           3.3920    -1.8330     1.7520 ha         1 IB1       0.167500
     32 H5          -1.1570    -0.8650    -0.4120 hn         1 IB1       0.458800
     33 H6          -3.9440     1.4600     0.4790 ha         1 IB1       0.154000
     34 H7          -6.2270     0.6380     0.6880 ha         1 IB1       0.143500
     35 H8          -4.9060    -3.3410    -0.2270 ha         1 IB1       0.143500
     36 H9          -2.6160    -2.5240    -0.4410 ha         1 IB1       0.154000
     37 H10          5.2520    -3.2130     1.8580 h1         1 IB1       0.050033
     38 H11          3.8870    -4.0230     1.0510 h1         1 IB1       0.050033
     39 H12          5.5500    -4.5400     0.7190 h1         1 IB1       0.050033
@<TRIPOS>BOND
     1     1     2 ar  
     2     1     6 ar  
     3     1    28 1   
     4     2     3 ar  
     5     2     7 1   
     6     3     4 ar  
     7     4     5 ar  
     8     4    17 1   
     9     5     6 ar  
    10     6    29 1   
    11     7     8 2   
    12     7     9 1   
    13     9    10 ar  
    14     9    14 ar  
    15    10    11 ar  
    16    10    26 1   
    17    11    12 ar  
    18    11    30 1   
    19    12    13 ar  
    20    12    16 1   
    21    13    14 ar  
    22    13    31 1   
    23    14    15 1   
    24    16    27 1   
    25    17    18 1   
    26    17    32 1   
    27    18    19 ar  
    28    18    23 ar  
    29    19    20 ar  
    30    19    33 1   
    31    20    21 ar  
    32    20    34 1   
    33    21    22 ar  
    34    21    24 1   
    35    22    23 ar  
    36    22    35 1   
    37    23    36 1   
    38    24    25 3   
    39    27    37 1   
    40    27    38 1   
    41    27    39 1   
@<TRIPOS>SUBSTRUCTURE
     1 IB1         1 TEMP              0 ****  ****    0 ROOT
