@<TRIPOS>MOLECULE
IB2
   76    81     1     0     0
SMALL
abcg2


@<TRIPOS>ATOM
      1 PA          -1.0480     2.5890     2.4790 p5         1 IB2       1.413400
      2 O1A         -2.4810     2.9510     2.1960 o          1 IB2      -0.827000
      3 O2A         -0.1000     3.6430     2.9780 o          1 IB2      -0.827000
      4 C3A         -0.3460     1.6920     1.0430 c3         1 IB2      -0.784400
      5 PB          -0.8590     2.4870    -0.5040 p5         1 IB2       1.439400
      6 O1B         -0.5120     3.9410    -0.5170 o          1 IB2      -0.799500
      7 O2B         -2.1720     1.9710    -0.9940 o          1 IB2      -0.799500
      8 O3B          0.3210     1.7120    -1.5330 os         1 IB2      -0.638800
      9 PG           0.9800     2.3310    -2.8130 p5         1 IB2       1.215200
     10 O1G          1.9860     3.4080    -2.7060 o          1 IB2      -0.521000
     11 S2G         -0.5540     2.9980    -4.0730 sh         1 IB2      -0.635200
     12 O5D         -1.0230     1.3170     3.5510 os         1 IB2      -0.576400
     13 C5D         -1.2920     1.6110     4.9010 c3         1 IB2       0.234600
     14 C4D         -1.9010     0.4010     5.5680 c5         1 IB2       0.150300
     15 O4D         -0.9970    -0.7040     5.5340 os         1 IB2      -0.410000
     16 C3D         -2.2010     0.6140     7.0490 c5         1 IB2       0.084300
     17 O3D         -3.4510     1.2220     7.2090 oh         1 IB2      -0.694000
     18 C2D         -2.1340    -0.8190     7.5880 c5         1 IB2       0.092300
     19 O2D         -3.2980    -1.5290     7.2690 oh         1 IB2      -0.707000
     20 C1D         -0.9950    -1.3910     6.7470 c5         1 IB2       0.313300
     21 O5           1.5320     0.9690    -3.4620 os         1 IB2      -0.553400
     22 C5           2.3600     1.0420    -4.6170 c3         1 IB2       0.191600
     23 C4           2.5470    -0.3660    -5.1420 c5         1 IB2       0.164300
     24 O4           1.2840    -0.9610    -5.4480 os         1 IB2      -0.417000
     25 C3           3.3490    -0.3920    -6.4370 c5         1 IB2       0.104300
     26 O3           4.0040    -1.6280    -6.5310 oh         1 IB2      -0.705000
     27 C2           2.2320    -0.2870    -7.4780 c5         1 IB2       0.072300
     28 O2           2.5510    -0.8020    -8.7350 oh         1 IB2      -0.701000
     29 C1           1.1400    -1.1390    -6.8290 c5         1 IB2       0.317300
     30 N9          -0.1970    -0.7720    -7.2190 na         1 IB2      -0.290300
     31 C8          -0.8560     0.3930    -6.9270 cc         1 IB2       0.430700
     32 N7          -2.0590     0.4410    -7.4150 nd         1 IB2      -0.548100
     33 C7          -2.2110    -0.7560    -8.0670 ca         1 IB2      -0.090600
     34 C6          -3.2730    -1.3190    -8.7970 ca         1 IB2       0.445900
     35 N6          -4.4360    -0.6910    -8.9790 nv         1 IB2      -1.069900
     36 N1          -3.0990    -2.5400    -9.3150 nb         1 IB2      -0.318000
     37 C10         -1.9420    -3.1670    -9.1210 ca         1 IB2       0.165900
     38 N3          -0.8770    -2.7430    -8.4630 nb         1 IB2      -0.215000
     39 C9          -1.0650    -1.5280    -7.9550 ca         1 IB2       0.129500
     40 N9A          0.2980    -1.2050     7.3990 na         1 IB2      -0.297300
     41 C8A          1.2850    -0.3040     7.1080 cc         1 IB2       0.445700
     42 N7A          2.3250    -0.4110     7.8830 nd         1 IB2      -0.580100
     43 C5A          2.0140    -1.4400     8.7320 ca         1 IB2      -0.090600
     44 C6A          2.7040    -2.0560     9.7930 ca         1 IB2       0.439900
     45 N6A          3.9170    -1.6650    10.1880 nv         1 IB2      -1.075900
     46 N1A          2.1030    -3.0680    10.4280 nb         1 IB2      -0.320000
     47 C2A          0.8880    -3.4490    10.0400 ca         1 IB2       0.158900
     48 N3A          0.1430    -2.9530     9.0680 nb         1 IB2      -0.208000
     49 C4A          0.7570    -1.9490     8.4450 ca         1 IB2       0.105500
     50 H3A1         0.7430     1.6840     1.1230 hc         1 IB2       0.076200
     51 H3A2        -0.6840     0.6550     1.0410 hc         1 IB2       0.076200
     52 HSG2        -1.4210     2.0130    -3.8040 hs         1 IB2       0.353800
     53 H5'1        -2.0100     2.4320     5.0150 h1         1 IB2       0.021700
     54 H5'2        -0.3780     1.9110     5.4280 h1         1 IB2       0.021700
     55 H4D         -2.8240     0.1270     5.0410 h1         1 IB2       0.096700
     56 H3D         -1.4020     1.2110     7.5100 h1         1 IB2       0.051700
     57 HO3         -3.4950     1.6190     8.0850 ho         1 IB2       0.498000
     58 H2D         -1.9130    -0.8590     8.6610 h1         1 IB2       0.055700
     59 HO2         -4.0460    -0.9280     7.3750 ho         1 IB2       0.521000
     60 H1D         -1.1190    -2.4650     6.5830 h2         1 IB2       0.109700
     61 H51X         1.9060     1.6890    -5.3780 h1         1 IB2       0.039200
     62 H52X         3.3360     1.4610    -4.3620 h1         1 IB2       0.039200
     63 H4           3.0370    -0.9690    -4.3720 h1         1 IB2       0.109700
     64 H3           4.0520     0.4480    -6.5040 h1         1 IB2       0.054700
     65 HO3X         4.2070    -1.7860    -7.4610 ho         1 IB2       0.512000
     66 H2           1.8980     0.7560    -7.5440 h1         1 IB2       0.062700
     67 HO2X         2.9850    -0.1150    -9.2520 ho         1 IB2       0.507000
     68 H1           1.2620    -2.1890    -7.1170 h2         1 IB2       0.110700
     69 H8          -0.4020     1.1730    -6.3340 h5         1 IB2       0.098800
     70 HN61        -5.1500    -1.1050    -9.5530 hn         1 IB2       0.502500
     71 HN62        -4.5750     0.2480    -8.6500 hn         1 IB2       0.502500
     72 H6          -1.8670    -4.1540    -9.5650 h5         1 IB2       0.032100
     73 H8A          1.1910     0.4070     6.3030 h5         1 IB2       0.105800
     74 HNA1         4.4010    -2.1710    10.9090 hn         1 IB2       0.498500
     75 HNA2         4.4200    -0.9520     9.6890 hn         1 IB2       0.498500
     76 H2A          0.4590    -4.2750    10.5970 h5         1 IB2       0.032100
@<TRIPOS>BOND
     1     1     2 1   
     2     1     3 1   
     3     1     4 1   
     4     1    12 1   
     5     4     5 1   
     6     4    50 1   
     7     4    51 1   
     8     5     6 1   
     9     5     7 1   
    10     5     8 1   
    11     8     9 1   
    12     9    10 2   
    13     9    11 1   
    14     9    21 1   
    15    11    52 1   
    16    12    13 1   
    17    13    14 1   
    18    13    53 1   
    19    13    54 1   
    20    14    15 1   
    21    14    16 1   
    22    14    55 1   
    23    15    20 1   
    24    16    17 1   
    25    16    18 1   
    26    16    56 1   
    27    17    57 1   
    28    18    19 1   
    29    18    20 1   
    30    18    58 1   
    31    19    59 1   
    32    20    40 1   
    33    20    60 1   
    34    21    22 1   
    35    22    23 1   
    36    22    61 1   
    37    22    62 1   
    38    23    24 1   
    39    23    25 1   
    40    23    63 1   
    41    24    29 1   
    42    25    26 1   
    43    25    27 1   
    44    25    64 1   
    45    26    65 1   
    46    27    28 1   
    47    27    29 1   
    48    27    66 1   
    49    28    67 1   
    50    29    30 1   
    51    29    68 1   
    52    30    31 1   
    53    30    39 1   
    54    31    32 2   
    55    31    69 1   
    56    32    33 1   
    57    33    34 ar  
    58    33    39 ar  
    59    34    35 1   
    60    34    36 ar  
    61    35    70 1   
    62    35    71 1   
    63    36    37 ar  
    64    37    38 ar  
    65    37    72 1   
    66    38    39 ar  
    67    40    41 1   
    68    40    49 1   
    69    41    42 2   
    70    41    73 1   
    71    42    43 1   
    72    43    44 ar  
    73    43    49 ar  
    74    44    45 1   
    75    44    46 ar  
    76    45    74 1   
    77    45    75 1   
    78    46    47 ar  
    79    47    48 ar  
    80    47    76 1   
    81    48    49 ar  
@<TRIPOS>SUBSTRUCTURE
     1 IB2         1 TEMP              0 ****  ****    0 ROOT
