@<TRIPOS>MOLECULE
IB2
   76    81     1     0     0
SMALL
No Charge or Current Charge


@<TRIPOS>ATOM
      1 PA          -1.2870     3.8950     1.4750 p5         1 IB2       1.413400
      2 O1A         -2.6700     3.3460     1.4380 o          1 IB2      -0.827000
      3 O2A         -1.2380     5.3070     1.9560 o          1 IB2      -0.827000
      4 C3A         -0.4220     3.8750    -0.0630 c3         1 IB2      -0.784400
      5 PB          -1.0070     2.4620    -0.9430 p5         1 IB2       1.439400
      6 O1B         -0.0330     2.3070    -2.0590 o          1 IB2      -0.799500
      7 O2B         -2.3940     2.7120    -1.4280 o          1 IB2      -0.799500
      8 O3B         -0.8790     1.3120     0.1300 os         1 IB2      -0.638800
      9 PG          -1.0540    -0.1350    -0.4820 p5         1 IB2       1.215200
     10 O1G         -1.5960    -0.2980    -1.8580 o          1 IB2      -0.521000
     11 S2G         -2.2570    -0.9630     1.0000 sh         1 IB2      -0.635200
     12 O5D         -0.2500     2.9990     2.3220 os         1 IB2      -0.576400
     13 C5D         -0.3840     2.8590     3.7440 c3         1 IB2       0.234600
     14 C4D         -1.5090     1.8490     4.1110 c5         1 IB2       0.150300
     15 O4D         -1.2150     0.5320     3.5690 os         1 IB2      -0.410000
     16 C3D         -1.6780     1.6420     5.6490 c5         1 IB2       0.084300
     17 O3D         -2.5420     2.6130     6.2630 oh         1 IB2      -0.694000
     18 C2D         -2.3090     0.2220     5.6840 c5         1 IB2       0.092300
     19 O2D         -3.7040     0.2970     5.3530 oh         1 IB2      -0.707000
     20 C1D         -1.4350    -0.4800     4.5840 c5         1 IB2       0.313300
     21 O5           0.3380    -0.8740    -0.1370 os         1 IB2      -0.553400
     22 C5           1.4990    -0.7180    -0.9690 c3         1 IB2       0.191600
     23 C4           1.6730    -1.9760    -1.8710 c5         1 IB2       0.164300
     24 O4           0.6070    -2.0470    -2.8580 os         1 IB2      -0.417000
     25 C3           2.9990    -1.9570    -2.7030 c5         1 IB2       0.104300
     26 O3           3.4170    -3.2560    -3.1400 oh         1 IB2      -0.705000
     27 C2           2.5490    -1.1010    -3.9170 c5         1 IB2       0.072300
     28 O2           3.4660    -1.2440    -5.0230 oh         1 IB2      -0.701000
     29 C1           1.1330    -1.7270    -4.1650 c5         1 IB2       0.317300
     30 N9           0.1510    -0.9370    -4.9060 na         1 IB2      -0.290300
     31 C8           0.0160     0.4570    -4.8750 cc         1 IB2       0.430700
     32 N7          -0.9280     0.8780    -5.7390 nd         1 IB2      -0.548100
     33 C7          -1.4030    -0.3100    -6.3020 ca         1 IB2      -0.090600
     34 C6          -2.4070    -0.5060    -7.2730 ca         1 IB2       0.445900
     35 N6          -3.1000     0.5200    -7.8350 nv         1 IB2      -1.069900
     36 N1          -2.7230    -1.7370    -7.7060 nb         1 IB2      -0.318000
     37 C10         -2.0290    -2.7600    -7.1520 ca         1 IB2       0.165900
     38 N3          -1.0530    -2.6640    -6.2160 nb         1 IB2      -0.215000
     39 C9          -0.7590    -1.4150    -5.8050 ca         1 IB2       0.129500
     40 N9A         -0.1250    -1.0180     4.9770 na         1 IB2      -0.297300
     41 C8A          0.4880    -0.9110     6.2340 cc         1 IB2       0.445700
     42 N7A          1.6980    -1.5060     6.2440 nd         1 IB2      -0.580100
     43 C5A          1.8240    -2.0030     4.9440 ca         1 IB2      -0.090600
     44 C6A          2.8860    -2.7230     4.3540 ca         1 IB2       0.439900
     45 N6A          4.0190    -3.0510     5.0310 nv         1 IB2      -1.075900
     46 N1A          2.8310    -3.1180     3.0720 nb         1 IB2      -0.320000
     47 C2A          1.7010    -2.7910     2.3980 ca         1 IB2       0.158900
     48 N3A          0.6370    -2.1090     2.8840 nb         1 IB2      -0.208000
     49 C4A          0.7280    -1.7180     4.1700 ca         1 IB2       0.105500
     50 H3A1        -0.6510     4.7750    -0.6330 hc         1 IB2       0.076200
     51 H3A2         0.6520     3.7910     0.1060 hc         1 IB2       0.076200
     52 HSG2        -1.4920    -0.1620     1.7910 hs         1 IB2       0.353800
     53 H5'1        -0.6120     3.8270     4.2080 h1         1 IB2       0.021700
     54 H5'2         0.5620     2.5030     4.1730 h1         1 IB2       0.021700
     55 H4D         -2.4580     2.1920     3.6800 h1         1 IB2       0.096700
     56 H3D         -0.6930     1.6450     6.1380 h1         1 IB2       0.051700
     57 HO3         -2.2610     2.7150     7.2050 ho         1 IB2       0.498000
     58 H2D         -2.1850    -0.2550     6.6660 h1         1 IB2       0.055700
     59 HO2         -3.9620     1.2160     5.6140 ho         1 IB2       0.521000
     60 H1D         -1.9820    -1.3300     4.1560 h2         1 IB2       0.109700
     61 H51X         1.4260     0.1800    -1.5940 h1         1 IB2       0.039200
     62 H52X         2.3910    -0.6110    -0.3390 h1         1 IB2       0.039200
     63 H4           1.6290    -2.8620    -1.2240 h1         1 IB2       0.109700
     64 H3           3.8130    -1.4650    -2.1500 h1         1 IB2       0.054700
     65 HO3X         3.8350    -3.0850    -4.0200 ho         1 IB2       0.512000
     66 H2           2.4700    -0.0450    -3.6240 h1         1 IB2       0.062700
     67 HO2X         3.2260    -0.5750    -5.7080 ho         1 IB2       0.507000
     68 H1           1.2550    -2.6620    -4.7270 h2         1 IB2       0.110700
     69 H8           0.6260     1.0890    -4.2400 h5         1 IB2       0.098800
     70 HN61        -3.5800     0.3450    -8.7140 hn         1 IB2       0.502500
     71 HN62        -2.7350     1.4580    -7.6910 hn         1 IB2       0.502500
     72 H6          -2.2780    -3.7620    -7.4950 h5         1 IB2       0.032100
     73 H8A          0.0270    -0.4060     7.0750 h5         1 IB2       0.105800
     74 HNA1         4.8420    -3.2960     4.4880 hn         1 IB2       0.498500
     75 HNA2         4.1780    -2.5790     5.9180 hn         1 IB2       0.498500
     76 H2A          1.6420    -3.1090     1.3590 h5         1 IB2       0.032100
@<TRIPOS>BOND
     1     1     2 1   
     2     1     3 1   
     3     1     4 1   
     4     1    12 1   
     5     4     5 1   
     6     4    50 1   
     7     4    51 1   
     8     5     6 1   
     9     5     7 1   
    10     5     8 1   
    11     8     9 1   
    12     9    10 2   
    13     9    11 1   
    14     9    21 1   
    15    11    52 1   
    16    12    13 1   
    17    13    14 1   
    18    13    53 1   
    19    13    54 1   
    20    14    15 1   
    21    14    16 1   
    22    14    55 1   
    23    15    20 1   
    24    16    17 1   
    25    16    18 1   
    26    16    56 1   
    27    17    57 1   
    28    18    19 1   
    29    18    20 1   
    30    18    58 1   
    31    19    59 1   
    32    20    40 1   
    33    20    60 1   
    34    21    22 1   
    35    22    23 1   
    36    22    61 1   
    37    22    62 1   
    38    23    24 1   
    39    23    25 1   
    40    23    63 1   
    41    24    29 1   
    42    25    26 1   
    43    25    27 1   
    44    25    64 1   
    45    26    65 1   
    46    27    28 1   
    47    27    29 1   
    48    27    66 1   
    49    28    67 1   
    50    29    30 1   
    51    29    68 1   
    52    30    31 1   
    53    30    39 1   
    54    31    32 2   
    55    31    69 1   
    56    32    33 1   
    57    33    34 ar  
    58    33    39 ar  
    59    34    35 1   
    60    34    36 ar  
    61    35    70 1   
    62    35    71 1   
    63    36    37 ar  
    64    37    38 ar  
    65    37    72 1   
    66    38    39 ar  
    67    40    41 1   
    68    40    49 1   
    69    41    42 2   
    70    41    73 1   
    71    42    43 1   
    72    43    44 ar  
    73    43    49 ar  
    74    44    45 1   
    75    44    46 ar  
    76    45    74 1   
    77    45    75 1   
    78    46    47 ar  
    79    47    48 ar  
    80    47    76 1   
    81    48    49 ar  
@<TRIPOS>SUBSTRUCTURE
     1 IB2         1 TEMP              0 ****  ****    0 ROOT
