@<TRIPOS>MOLECULE
IB3
   35    35     1     0     0
SMALL
abcg2


@<TRIPOS>ATOM
      1 C1           3.9870    -0.4800     1.1820 ca         1 IB3      -0.119000
      2 C2           2.6930     0.0070     1.2820 ca         1 IB3      -0.107500
      3 C3           1.7270    -0.2680     0.3110 ca         1 IB3       0.060700
      4 C4           2.1310    -1.0370    -0.7790 ca         1 IB3      -0.107500
      5 C5           3.4280    -1.5270    -0.8810 ca         1 IB3      -0.119000
      6 C6           4.3840    -1.2560     0.0930 ca         1 IB3      -0.165300
      7 P8           0.3340     2.0090    -0.3750 p5         1 IB3       1.275500
      8 O11         -1.0830     2.5620    -0.1430 o          1 IB3      -0.913500
      9 O10          0.6530     1.7430    -1.8510 o          1 IB3      -0.913500
     10 C7           0.3480     0.2960     0.4290 c3         1 IB3      -0.328400
     11 C12         -0.7300    -0.6330    -0.1410 c3         1 IB3      -0.008400
     12 C13         -2.1130    -0.3000     0.3990 c3         1 IB3      -0.165400
     13 C14         -3.2020    -1.1640    -0.1870 c          1 IB3       0.625100
     14 N16         -4.4730    -0.8630     0.1820 n          1 IB3      -0.307300
     15 C17         -5.6360    -1.6550    -0.1300 c3         1 IB3       0.094300
     16 O18         -4.6660     0.0500     1.1860 oh         1 IB3      -0.443100
     17 O15         -2.9860    -2.0780    -0.9720 o          1 IB3      -0.628100
     18 C19          5.7940    -1.7600    -0.0290 c3         1 IB3      -0.012800
     19 H1           4.7040    -0.2510     1.9630 ha         1 IB3       0.067000
     20 H2           2.4170     0.6090     2.1390 ha         1 IB3       0.115000
     21 H3           1.4240    -1.2710    -1.5630 ha         1 IB3       0.115000
     22 H4           3.7010    -2.1300    -1.7410 ha         1 IB3       0.067000
     23 H7           0.1440     0.4490     1.4970 hc         1 IB3       0.033700
     24 H8          -0.7320    -0.5560    -1.2310 hc         1 IB3       0.023200
     25 H9          -0.4900    -1.6760     0.0910 hc         1 IB3       0.023200
     26 H10         -2.1230    -0.4180     1.4880 hc         1 IB3       0.100200
     27 H11         -2.3050     0.7600     0.2160 hc         1 IB3       0.100200
     28 H12         -6.4420    -1.0160    -0.4900 h1         1 IB3       0.027700
     29 H13         -5.3890    -2.3680    -0.9090 h1         1 IB3       0.027700
     30 H14         -5.9870    -2.2030     0.7470 h1         1 IB3       0.027700
     31 H15         -4.9130     0.8790     0.7550 ho         1 IB3       0.448000
     32 H16          6.4650    -0.9780    -0.3930 hc         1 IB3       0.007033
     33 H17          6.1880    -2.0920     0.9330 hc         1 IB3       0.007033
     34 H18          5.8630    -2.5960    -0.7250 hc         1 IB3       0.007033
     35 O9           1.4150     2.7960     0.3720 o          1 IB3      -0.913500
@<TRIPOS>BOND
     1     1     2 ar  
     2     1     6 ar  
     3     1    19 1   
     4     2     3 ar  
     5     2    20 1   
     6     3     4 ar  
     7     3    10 1   
     8     4     5 ar  
     9     4    21 1   
    10     5     6 ar  
    11     5    22 1   
    12     6    18 1   
    13     7     8 1   
    14     7     9 1   
    15     7    10 1   
    16     7    35 1   
    17    10    11 1   
    18    10    23 1   
    19    11    12 1   
    20    11    24 1   
    21    11    25 1   
    22    12    13 1   
    23    12    26 1   
    24    12    27 1   
    25    13    14 1   
    26    13    17 2   
    27    14    15 1   
    28    14    16 1   
    29    15    28 1   
    30    15    29 1   
    31    15    30 1   
    32    16    31 1   
    33    18    32 1   
    34    18    33 1   
    35    18    34 1   
@<TRIPOS>SUBSTRUCTURE
     1 IB3         1 TEMP              0 ****  ****    0 ROOT
