@<TRIPOS>MOLECULE
IB3
   35    35     1     0     0
SMALL
No Charge or Current Charge


@<TRIPOS>ATOM
      1 C1           3.8860    -0.8040     1.3580 ca         1 IB3      -0.119000
      2 C2           2.6090    -0.2190     1.4060 ca         1 IB3      -0.107500
      3 C3           1.8100    -0.1420     0.2470 ca         1 IB3       0.060700
      4 C4           2.3140    -0.6660    -0.9610 ca         1 IB3      -0.107500
      5 C5           3.5920    -1.2520    -1.0100 ca         1 IB3      -0.119000
      6 C6           4.3830    -1.3260     0.1500 ca         1 IB3      -0.165300
      7 P8           0.3440     2.1160    -0.5480 p5         1 IB3       1.275500
      8 O11         -0.8070     2.8960    -0.0090 o          1 IB3      -0.913500
      9 O10          0.1740     1.9000    -2.0140 o          1 IB3      -0.913500
     10 C7           0.4140     0.4750     0.3160 c3         1 IB3      -0.328400
     11 C12         -0.6680    -0.5480    -0.1350 c3         1 IB3      -0.008400
     12 C13         -2.1180    -0.1840     0.2720 c3         1 IB3      -0.165400
     13 C14         -3.1950    -1.2270    -0.0720 c          1 IB3       0.625100
     14 N16         -4.5320    -0.9570     0.3340 n          1 IB3      -0.307300
     15 C17         -5.6460    -1.8930     0.0850 c3         1 IB3       0.094300
     16 O18         -4.8700     0.2470     1.0590 oh         1 IB3      -0.443100
     17 O15         -2.9250    -2.2590    -0.6780 o          1 IB3      -0.628100
     18 C19          5.7670    -1.9580     0.0980 c3         1 IB3      -0.012800
     19 H1           4.4880    -0.8530     2.2630 ha         1 IB3       0.067000
     20 H2           2.2390     0.1760     2.3490 ha         1 IB3       0.115000
     21 H3           1.7170    -0.6170    -1.8670 ha         1 IB3       0.115000
     22 H4           3.9640    -1.6470    -1.9520 ha         1 IB3       0.067000
     23 H7           0.2000     0.7320     1.3590 hc         1 IB3       0.033700
     24 H8          -0.6210    -0.6870    -1.2220 hc         1 IB3       0.023200
     25 H9          -0.4280    -1.5190     0.3150 hc         1 IB3       0.023200
     26 H10         -2.1990     0.0340     1.3420 hc         1 IB3       0.100200
     27 H11         -2.4430     0.7660    -0.1630 hc         1 IB3       0.100200
     28 H12         -6.5800    -1.4940     0.5010 h1         1 IB3       0.027700
     29 H13         -5.7700    -2.0400    -0.9960 h1         1 IB3       0.027700
     30 H14         -5.4290    -2.8590     0.5580 h1         1 IB3       0.027700
     31 H15         -5.1340     0.9030     0.3730 ho         1 IB3       0.448000
     32 H16          6.5300    -1.2070    -0.1390 hc         1 IB3       0.007033
     33 H17          6.0340    -2.4170     1.0570 hc         1 IB3       0.007033
     34 H18          5.8190    -2.7420    -0.6670 hc         1 IB3       0.007033
     35 O9           1.6100     2.8590    -0.2840 o          1 IB3      -0.913500
@<TRIPOS>BOND
     1     1     2 ar  
     2     1     6 ar  
     3     1    19 1   
     4     2     3 ar  
     5     2    20 1   
     6     3     4 ar  
     7     3    10 1   
     8     4     5 ar  
     9     4    21 1   
    10     5     6 ar  
    11     5    22 1   
    12     6    18 1   
    13     7     8 1   
    14     7     9 1   
    15     7    10 1   
    16     7    35 1   
    17    10    11 1   
    18    10    23 1   
    19    11    12 1   
    20    11    24 1   
    21    11    25 1   
    22    12    13 1   
    23    12    26 1   
    24    12    27 1   
    25    13    14 1   
    26    13    17 2   
    27    14    15 1   
    28    14    16 1   
    29    15    28 1   
    30    15    29 1   
    31    15    30 1   
    32    16    31 1   
    33    18    32 1   
    34    18    33 1   
    35    18    34 1   
@<TRIPOS>SUBSTRUCTURE
     1 IB3         1 TEMP              0 ****  ****    0 ROOT
