@<TRIPOS>MOLECULE
IB4
   59    62     1     0     0
SMALL
bcc


@<TRIPOS>ATOM
      1 C10        102.4520   129.0560    40.1800 cc         1 IB4       0.308200
      2 C11        102.9450   130.3550    34.7790 ca         1 IB4       0.132300
      3 C13        105.2880   133.8330    35.5080 cx         1 IB4      -0.188000
      4 C15        105.1470   134.5750    36.8080 cx         1 IB4      -0.113900
      5 C16        106.3700   133.7670    36.5540 cx         1 IB4      -0.113900
      6 C22        103.3280   131.1780    33.7080 ca         1 IB4      -0.171000
      7 C23        102.0560   128.4850    33.4370 ca         1 IB4      -0.064000
      8 C24        104.0780   132.3050    33.9310 ca         1 IB4      -0.174300
      9 C25        101.6990   126.9770    31.2580 ca         1 IB4       0.614900
     10 C26        103.4040   130.2590    43.3130 c3         1 IB4       0.015300
     11 C27        100.8830   127.7630    33.2090 ca         1 IB4       0.392700
     12 C28        103.0420   128.3440    32.4600 ca         1 IB4       0.392700
     13 C1         103.6000   130.8130    40.8690 cd         1 IB4      -0.193900
     14 C2         103.1740   130.1710    39.7180 cc         1 IB4      -0.089700
     15 C3         103.3300   130.7970    36.0580 ca         1 IB4       0.289800
     16 N4         104.0610   131.8930    36.2450 nb         1 IB4      -0.666000
     17 C5         104.2710   132.1280    41.0270 c          1 IB4       0.712700
     18 N6         103.1100   130.0950    41.9050 na         1 IB4       0.153400
     19 C7         102.9140   130.0830    37.3000 c          1 IB4       0.590600
     20 N8         102.4440   129.0280    41.5010 nd         1 IB4      -0.510800
     21 N9         103.4300   130.6070    38.4270 ns         1 IB4      -0.417100
     22 C12        104.4560   132.6420    35.2360 ca         1 IB4       0.416600
     23 N17        105.4170   132.3070    40.3420 n          1 IB4      -0.465800
     24 O18        103.7380   133.0110    41.6860 o          1 IB4      -0.598100
     25 O19        102.1590   129.1160    37.2900 o          1 IB4      -0.628100
     26 N20        102.8570   127.6060    31.3770 nb         1 IB4      -0.676000
     27 N21        100.7080   127.0120    32.1360 nb         1 IB4      -0.676000
     28 O29        105.8310   130.3450    43.0460 os         1 IB4      -0.407600
     29 C30        106.0250   133.6240    40.3440 c3         1 IB4       0.082800
     30 C31        106.2870   131.2300    39.9080 c3         1 IB4       0.082800
     31 C32        104.7660   129.6840    43.6780 c3         1 IB4       0.110400
     32 C33        106.2630   131.5090    43.7120 c3         1 IB4       0.109700
     33 H1         101.9460   128.2920    39.6160 h4         1 IB4       0.064100
     34 H2         105.5080   134.4300    34.6310 hc         1 IB4       0.085700
     35 H3         105.2220   135.6540    36.7770 hc         1 IB4       0.077200
     36 H4         104.4260   134.1890    37.5180 hc         1 IB4       0.077200
     37 H5         106.4760   132.8300    37.0860 hc         1 IB4       0.077200
     38 H6         107.3000   134.2780    36.3460 hc         1 IB4       0.077200
     39 H7         103.0170   130.9450    32.6980 ha         1 IB4       0.151000
     40 H8         104.3650   132.9370    33.1000 ha         1 IB4       0.146000
     41 H9         101.5520   126.3740    30.3700 h5         1 IB4       0.054100
     42 H10        103.3240   131.3120    43.5770 h1         1 IB4       0.084200
     43 H11        102.6310   129.7260    43.8640 h1         1 IB4       0.084200
     44 H12        100.0750   127.7990    33.9330 h4         1 IB4       0.032100
     45 H13        104.0070   128.8290    32.5590 h4         1 IB4       0.032100
     46 H14        104.0000   131.4350    38.2940 hn         1 IB4       0.360500
     47 H15        101.7800   128.8430    35.4420 hn         1 IB4       0.490800
     48 H16        106.6770   133.7070    39.4770 h1         1 IB4       0.045700
     49 H17        105.2690   134.4010    40.2790 h1         1 IB4       0.045700
     50 H18        106.6230   133.7880    41.2440 h1         1 IB4       0.045700
     51 H19        107.2350   131.2850    40.4460 h1         1 IB4       0.045700
     52 H20        105.8480   130.2580    40.1080 h1         1 IB4       0.045700
     53 H21        106.4930   131.3110    38.8410 h1         1 IB4       0.045700
     54 H22        104.8690   129.7050    44.7700 h1         1 IB4       0.060700
     55 H23        104.8040   128.6380    43.3650 h1         1 IB4       0.060700
     56 H24        107.0950   131.9240    43.1440 h1         1 IB4       0.034700
     57 H25        105.4860   132.2770    43.7850 h1         1 IB4       0.034700
     58 H26        106.6140   131.2840    44.7260 h1         1 IB4       0.034700
     59 N14        102.1970   129.2190    34.5990 nu         1 IB4      -0.640000
@<TRIPOS>BOND
     1     1    14 1   
     2     1    20 2   
     3     1    33 1   
     4     2     6 ar  
     5     2    15 ar  
     6     2    59 1   
     7     3     4 1   
     8     3     5 1   
     9     3    22 1   
    10     3    34 1   
    11     4     5 1   
    12     4    35 1   
    13     4    36 1   
    14     5    37 1   
    15     5    38 1   
    16     6     8 ar  
    17     6    39 1   
    18     7    11 ar  
    19     7    12 ar  
    20     7    59 1   
    21     8    22 ar  
    22     8    40 1   
    23     9    26 ar  
    24     9    27 ar  
    25     9    41 1   
    26    10    18 1   
    27    10    31 1   
    28    10    42 1   
    29    10    43 1   
    30    11    27 ar  
    31    11    44 1   
    32    12    26 ar  
    33    12    45 1   
    34    13    14 2   
    35    13    17 1   
    36    13    18 1   
    37    14    21 1   
    38    15    16 ar  
    39    15    19 1   
    40    16    22 ar  
    41    17    23 1   
    42    17    24 2   
    43    18    20 1   
    44    19    21 1   
    45    19    25 2   
    46    21    46 1   
    47    23    29 1   
    48    23    30 1   
    49    28    31 1   
    50    28    32 1   
    51    29    48 1   
    52    29    49 1   
    53    29    50 1   
    54    30    51 1   
    55    30    52 1   
    56    30    53 1   
    57    31    54 1   
    58    31    55 1   
    59    32    56 1   
    60    32    57 1   
    61    32    58 1   
    62    47    59 1   
@<TRIPOS>SUBSTRUCTURE
     1 IB4         1 TEMP              0 ****  ****    0 ROOT
