@<TRIPOS>MOLECULE
IB4
   59    62     1     0     0
SMALL
No Charge or Current Charge


@<TRIPOS>ATOM
      1 C10        102.3460   129.2790    40.2710 cc         1 IB4       0.242900
      2 C11        102.9990   130.4760    34.7730 ca         1 IB4       0.336000
      3 C13        105.0920   134.1770    35.4320 cx         1 IB4      -0.188000
      4 C15        105.1180   134.8860    36.7730 cx         1 IB4      -0.113900
      5 C16        106.3670   134.2160    36.2490 cx         1 IB4      -0.113900
      6 C22        103.3510   131.2710    33.6660 ca         1 IB4      -0.153000
      7 C23        102.1850   128.3660    33.4830 ca         1 IB4       0.205000
      8 C24        104.0360   132.4810    33.8760 ca         1 IB4      -0.091000
      9 C25        101.9000   126.5990    31.4570 ca         1 IB4       0.088900
     10 C26        103.2570   130.4120    43.4680 c3         1 IB4       0.044600
     11 C27        101.1180   127.4410    33.4440 ca         1 IB4       0.064400
     12 C28        103.1100   128.3000    32.4140 ca         1 IB4       0.064400
     13 C1         103.6590   130.9380    40.9600 cd         1 IB4      -0.244600
     14 C2         103.1720   130.3300    39.8290 cc         1 IB4      -0.024400
     15 C3         103.3250   130.9730    36.0770 ca         1 IB4       0.224500
     16 N4         104.0010   132.1540    36.2660 nb         1 IB4      -0.666000
     17 C5         104.5370   132.1440    41.0600 c          1 IB4       0.645700
     18 N6         103.0510   130.2320    42.0170 na         1 IB4       0.174800
     19 C7         102.9130   130.1980    37.3320 c          1 IB4       0.523600
     20 N8         102.2520   129.1850    41.5790 nd         1 IB4      -0.510800
     21 N9         103.3720   130.7560    38.5150 ns         1 IB4      -0.350100
     22 C12        104.3510   132.8860    35.1850 ca         1 IB4       0.351300
     23 N17        105.5030   132.3580    40.0450 n          1 IB4      -0.398800
     24 O18        104.4410   132.9300    41.9930 o          1 IB4      -0.598100
     25 O19        102.2260   129.1790    37.3140 o          1 IB4      -0.628100
     26 N20        102.9690   127.4210    31.3990 nb         1 IB4      -0.150000
     27 N21        100.9670   126.5600    32.4320 nb         1 IB4      -0.150000
     28 O29        105.5830   129.6070    43.4960 os         1 IB4      -0.454000
     29 C30        106.2280   133.6480    40.0130 c3         1 IB4       0.082800
     30 C31        106.1950   131.2270    39.3790 c3         1 IB4       0.082800
     31 C32        104.2700   129.4070    44.0680 c3         1 IB4       0.133600
     32 C33        106.3240   130.7360    44.0010 c3         1 IB4       0.132900
     33 H1         101.7740   128.5840    39.6720 h4         1 IB4       0.064100
     34 H2         105.0620   134.8270    34.5610 hc         1 IB4       0.085700
     35 H3         105.0890   135.9730    36.7720 hc         1 IB4       0.077200
     36 H4         104.6070   134.4230    37.6140 hc         1 IB4       0.077200
     37 H5         106.6900   133.2960    36.7300 hc         1 IB4       0.077200
     38 H6         107.1750   134.8520    35.8980 hc         1 IB4       0.077200
     39 H7         103.0850   130.9760    32.6570 ha         1 IB4       0.133000
     40 H8         104.3190   133.1030    33.0300 ha         1 IB4       0.128000
     41 H9         101.7820   125.8900    30.6390 h5         1 IB4       0.054100
     42 H10        103.5650   131.4380    43.6870 h1         1 IB4       0.084200
     43 H11        102.2910   130.2630    43.9630 h1         1 IB4       0.084200
     44 H12        100.3670   127.4080    34.2330 h4         1 IB4       0.032100
     45 H13        103.9910   128.9370    32.3760 h4         1 IB4       0.032100
     46 H14        103.9180   131.5990    38.3550 hn         1 IB4       0.360500
     47 H15        101.9230   128.8960    35.4540 hn         1 IB4       0.546000
     48 H16        106.8590   133.7100    39.1180 h1         1 IB4       0.045700
     49 H17        105.5100   134.4780    39.9980 h1         1 IB4       0.045700
     50 H18        106.8640   133.7370    40.9030 h1         1 IB4       0.045700
     51 H19        107.2770   131.3100    39.5450 h1         1 IB4       0.045700
     52 H20        105.8670   130.2620    39.7860 h1         1 IB4       0.045700
     53 H21        106.0080   131.2550    38.2990 h1         1 IB4       0.045700
     54 H22        104.2970   129.5200    45.1600 h1         1 IB4       0.060700
     55 H23        103.9190   128.3890    43.8530 h1         1 IB4       0.060700
     56 H24        107.2940   130.8100    43.4940 h1         1 IB4       0.034700
     57 H25        105.7860   131.6770    43.8390 h1         1 IB4       0.034700
     58 H26        106.5110   130.6270    45.0770 h1         1 IB4       0.034700
     59 N14        102.3190   129.2560    34.5690 nu         1 IB4      -0.972000
@<TRIPOS>BOND
     1     1    14 1   
     2     1    20 2   
     3     1    33 1   
     4     2     6 ar  
     5     2    15 ar  
     6     2    59 1   
     7     3     4 1   
     8     3     5 1   
     9     3    22 1   
    10     3    34 1   
    11     4     5 1   
    12     4    35 1   
    13     4    36 1   
    14     5    37 1   
    15     5    38 1   
    16     6     8 ar  
    17     6    39 1   
    18     7    11 ar  
    19     7    12 ar  
    20     7    59 1   
    21     8    22 ar  
    22     8    40 1   
    23     9    26 ar  
    24     9    27 ar  
    25     9    41 1   
    26    10    18 1   
    27    10    31 1   
    28    10    42 1   
    29    10    43 1   
    30    11    27 ar  
    31    11    44 1   
    32    12    26 ar  
    33    12    45 1   
    34    13    14 2   
    35    13    17 1   
    36    13    18 1   
    37    14    21 1   
    38    15    16 ar  
    39    15    19 1   
    40    16    22 ar  
    41    17    23 1   
    42    17    24 2   
    43    18    20 1   
    44    19    21 1   
    45    19    25 2   
    46    21    46 1   
    47    23    29 1   
    48    23    30 1   
    49    28    31 1   
    50    28    32 1   
    51    29    48 1   
    52    29    49 1   
    53    29    50 1   
    54    30    51 1   
    55    30    52 1   
    56    30    53 1   
    57    31    54 1   
    58    31    55 1   
    59    32    56 1   
    60    32    57 1   
    61    32    58 1   
    62    47    59 1   
@<TRIPOS>SUBSTRUCTURE
     1 IB4         1 TEMP              0 ****  ****    0 ROOT
