@<TRIPOS>MOLECULE
IB5
   50    52     1     0     0
SMALL
bcc


@<TRIPOS>ATOM
      1 N1          11.2340   -14.0610     4.4120 na         1 IB5       0.003400
      2 C7           8.6980    -6.2820     4.0590 ca         1 IB5      -0.044000
      3 C8           9.6450    -7.2850     4.1610 ca         1 IB5      -0.112000
      4 N2          10.2610   -13.1650     4.5770 nc         1 IB5      -0.581800
      5 C9           6.1680    -4.5280     6.0840 c5         1 IB5       0.215300
      6 O1           6.8970    -4.0820     3.2540 o          1 IB5      -0.605800
      7 C1          10.7930   -12.0280     4.1720 cd         1 IB5       0.443200
      8 C5           7.0550    -7.9150     3.3690 ca         1 IB5      -0.044000
      9 C6           7.4070    -6.6050     3.6590 ca         1 IB5      -0.284500
     10 N3           9.9910   -10.8930     4.1960 ns         1 IB5      -0.533400
     11 C4           8.0080    -8.9130     3.4850 ca         1 IB5      -0.112000
     12 C3           9.3070    -8.6070     3.8790 ca         1 IB5      -0.102600
     13 O3          11.5530    -9.3240     3.7130 o          1 IB5      -0.571100
     14 C2          10.3940    -9.6330     3.9230 c          1 IB5       0.685700
     15 N4           5.4690    -5.1860     4.9640 n3         1 IB5      -0.765500
     16 C10          5.6860    -5.3010     7.3080 c5         1 IB5      -0.089400
     17 C11          4.3230    -5.8370     6.8830 c5         1 IB5      -0.089400
     18 C12          4.5470    -6.2300     5.4300 c5         1 IB5       0.215300
     19 O2           5.1840    -5.7970     2.5700 o          1 IB5      -0.605800
     20 C13         12.1230   -12.1920     3.7480 cd         1 IB5      -0.307300
     21 C14         12.3700   -13.5410     3.9200 cc         1 IB5      -0.066600
     22 C15         13.5970   -14.3470     3.5910 c3         1 IB5       0.017300
     23 C16         14.8400   -13.5660     4.0270 c3         1 IB5      -0.086767
     24 C17         13.5770   -15.7030     4.3010 c3         1 IB5      -0.086767
     25 C18         13.6400   -14.5680     2.0740 c3         1 IB5      -0.086767
     26 H1          11.0560   -15.0210     4.6590 hn         1 IB5       0.321700
     27 H2           8.9780    -5.2590     4.2680 ha         1 IB5       0.157000
     28 H3          10.6550    -7.0340     4.4520 ha         1 IB5       0.148500
     29 H5           5.8780    -3.4770     6.1270 h1         1 IB5       0.057450
     30 H6           6.0590    -8.1640     3.0300 ha         1 IB5       0.157000
     31 H7           9.0350   -11.0550     4.4780 hn         1 IB5       0.334500
     32 H8           7.7250    -9.9230     3.2160 ha         1 IB5       0.148500
     33 H9           6.3660    -6.1280     7.5210 hc         1 IB5       0.056450
     34 H10          5.6410    -4.6690     8.1940 hc         1 IB5       0.056450
     35 H11          3.5640    -5.0550     6.9500 hc         1 IB5       0.056450
     36 H12          3.9870    -6.6820     7.4830 hc         1 IB5       0.056450
     37 H13          3.6310    -6.2300     4.8420 h1         1 IB5       0.057450
     38 H14          4.9990    -7.2260     5.3710 h1         1 IB5       0.057450
     39 H15         12.8040   -11.4520     3.3700 ha         1 IB5       0.186000
     40 H16         14.8410   -13.3900     5.1040 hc         1 IB5       0.040478
     41 H17         15.7410   -14.1280     3.7750 hc         1 IB5       0.040478
     42 H18         14.9030   -12.5990     3.5270 hc         1 IB5       0.040478
     43 H19         13.5230   -15.5900     5.3850 hc         1 IB5       0.040478
     44 H20         12.7410   -16.3260     3.9760 hc         1 IB5       0.040478
     45 H21         14.4910   -16.2500     4.0700 hc         1 IB5       0.040478
     46 H22         14.5260   -15.1440     1.8000 hc         1 IB5       0.040478
     47 H23         12.7620   -15.1170     1.7300 hc         1 IB5       0.040478
     48 H24         13.6770   -13.6200     1.5360 hc         1 IB5       0.040478
     49 S1           6.1870    -5.3230     3.5080 sy         1 IB5       1.321200
     50 H4           7.2530    -4.5710     5.9820 h1         1 IB5       0.057450
@<TRIPOS>BOND
     1     1     4 1   
     2     1    21 1   
     3     1    26 1   
     4     2     3 ar  
     5     2     9 ar  
     6     2    27 1   
     7     3    12 ar  
     8     3    28 1   
     9     4     7 2   
    10     5    15 1   
    11     5    16 1   
    12     5    29 1   
    13     5    50 1   
    14     6    49 2   
    15     7    10 1   
    16     7    20 1   
    17     8     9 ar  
    18     8    11 ar  
    19     8    30 1   
    20     9    49 1   
    21    10    14 1   
    22    10    31 1   
    23    11    12 ar  
    24    11    32 1   
    25    12    14 1   
    26    13    14 2   
    27    15    18 1   
    28    15    49 1   
    29    16    17 1   
    30    16    33 1   
    31    16    34 1   
    32    17    18 1   
    33    17    35 1   
    34    17    36 1   
    35    18    37 1   
    36    18    38 1   
    37    19    49 2   
    38    20    21 2   
    39    20    39 1   
    40    21    22 1   
    41    22    23 1   
    42    22    24 1   
    43    22    25 1   
    44    23    40 1   
    45    23    41 1   
    46    23    42 1   
    47    24    43 1   
    48    24    44 1   
    49    24    45 1   
    50    25    46 1   
    51    25    47 1   
    52    25    48 1   
@<TRIPOS>SUBSTRUCTURE
     1 IB5         1 TEMP              0 ****  ****    0 ROOT
