@<TRIPOS>MOLECULE
IB5
   50    52     1     0     0
SMALL
No Charge or Current Charge


@<TRIPOS>ATOM
      1 N1          11.3840   -14.2370     3.3390 na         1 IB5       0.003800
      2 C7           8.4400    -6.4440     3.8440 ca         1 IB5      -0.026000
      3 C8           9.4710    -7.3980     3.8630 ca         1 IB5      -0.094000
      4 N2          10.2730   -13.4030     3.2950 nc         1 IB5      -0.581800
      5 C9           5.6720    -6.4300     6.2560 c5         1 IB5       0.215300
      6 O1           6.3220    -4.3780     3.0610 o          1 IB5      -0.535000
      7 C1          10.7930   -12.2140     3.4910 cd         1 IB5       0.377900
      8 C5           6.8170    -8.2140     3.4560 ca         1 IB5      -0.026000
      9 C6           7.1080    -6.8480     3.6370 ca         1 IB5      -0.284500
     10 N3          10.0060   -11.0930     3.5190 ns         1 IB5      -0.466400
     11 C4           7.8510    -9.1670     3.4750 ca         1 IB5      -0.094000
     12 C3           9.1980    -8.7740     3.6790 ca         1 IB5      -0.102600
     13 O3          11.5000    -9.4050     3.8880 o          1 IB5      -0.571100
     14 C2          10.3460    -9.7700     3.7070 c          1 IB5       0.618700
     15 N4           5.5810    -5.3150     5.2890 n3         1 IB5      -0.765500
     16 C10          5.2420    -5.7890     7.6100 c5         1 IB5      -0.089400
     17 C11          4.7820    -4.3540     7.2220 c5         1 IB5      -0.089400
     18 C12          4.4240    -4.5250     5.7310 c5         1 IB5       0.215300
     19 O2           4.5420    -6.2340     3.1540 o          1 IB5      -0.535000
     20 C13         12.1940   -12.2570     3.6580 cd         1 IB5      -0.224000
     21 C14         12.5870   -13.5640     3.5610 cc         1 IB5      -0.117300
     22 C15         13.9580   -14.2120     3.6560 c3         1 IB5       0.017300
     23 C16         15.0540   -13.1440     3.9090 c3         1 IB5      -0.086767
     24 C17         13.9700   -15.2260     4.8280 c3         1 IB5      -0.086767
     25 C18         14.2750   -14.9480     2.3300 c3         1 IB5      -0.086767
     26 H1          11.2860   -15.2440     3.2150 hn         1 IB5       0.372000
     27 H2           8.6800    -5.3930     3.9960 ha         1 IB5       0.139000
     28 H3          10.4920    -7.0580     4.0250 ha         1 IB5       0.130500
     29 H5           6.6860    -6.8480     6.3120 h1         1 IB5       0.057450
     30 H6           5.7910    -8.5460     3.3010 ha         1 IB5       0.139000
     31 H7           9.0210   -11.2460     3.3820 hn         1 IB5       0.334500
     32 H8           7.5780   -10.2090     3.3300 ha         1 IB5       0.130500
     33 H9           4.4280    -6.3630     8.0670 hc         1 IB5       0.056450
     34 H10          6.0660    -5.7670     8.3310 hc         1 IB5       0.056450
     35 H11          5.5960    -3.6300     7.3460 hc         1 IB5       0.056450
     36 H12          3.9350    -4.0030     7.8200 hc         1 IB5       0.056450
     37 H13          4.3500    -3.5570     5.2160 h1         1 IB5       0.057450
     38 H14          3.4770    -5.0670     5.5940 h1         1 IB5       0.057450
     39 H15         12.8520   -11.4160     3.8320 ha         1 IB5       0.168000
     40 H16         14.8680   -12.6050     4.8470 hc         1 IB5       0.040478
     41 H17         16.0460   -13.6070     3.9790 hc         1 IB5       0.040478
     42 H18         15.0830   -12.4100     3.0940 hc         1 IB5       0.040478
     43 H19         13.7270   -14.7280     5.7750 hc         1 IB5       0.040478
     44 H20         13.2350   -16.0250     4.6680 hc         1 IB5       0.040478
     45 H21         14.9560   -15.6940     4.9330 hc         1 IB5       0.040478
     46 H22         15.2710   -15.4070     2.3640 hc         1 IB5       0.040478
     47 H23         13.5460   -15.7420     2.1330 hc         1 IB5       0.040478
     48 H24         14.2520   -14.2500     1.4840 hc         1 IB5       0.040478
     49 S1           5.7860    -5.6180     3.6320 sy         1 IB5       1.179600
     50 H4           4.9880    -7.2480     5.9840 h1         1 IB5       0.057450
@<TRIPOS>BOND
     1     1     4 1   
     2     1    21 1   
     3     1    26 1   
     4     2     3 ar  
     5     2     9 ar  
     6     2    27 1   
     7     3    12 ar  
     8     3    28 1   
     9     4     7 2   
    10     5    15 1   
    11     5    16 1   
    12     5    29 1   
    13     5    50 1   
    14     6    49 2   
    15     7    10 1   
    16     7    20 1   
    17     8     9 ar  
    18     8    11 ar  
    19     8    30 1   
    20     9    49 1   
    21    10    14 1   
    22    10    31 1   
    23    11    12 ar  
    24    11    32 1   
    25    12    14 1   
    26    13    14 2   
    27    15    18 1   
    28    15    49 1   
    29    16    17 1   
    30    16    33 1   
    31    16    34 1   
    32    17    18 1   
    33    17    35 1   
    34    17    36 1   
    35    18    37 1   
    36    18    38 1   
    37    19    49 2   
    38    20    21 2   
    39    20    39 1   
    40    21    22 1   
    41    22    23 1   
    42    22    24 1   
    43    22    25 1   
    44    23    40 1   
    45    23    41 1   
    46    23    42 1   
    47    24    43 1   
    48    24    44 1   
    49    24    45 1   
    50    25    46 1   
    51    25    47 1   
    52    25    48 1   
@<TRIPOS>SUBSTRUCTURE
     1 IB5         1 TEMP              0 ****  ****    0 ROOT
