@<TRIPOS>MOLECULE
IB7
   60    63     1     0     0
SMALL
No Charge or Current Charge


@<TRIPOS>ATOM
      1 C11         16.2350    36.0510   -16.2580 ca         1 IB7      -0.152000
      2 C13         15.7830    38.3890   -15.7620 ca         1 IB7       0.357300
      3 C15         14.3210    36.7500   -14.9340 ca         1 IB7       0.228500
      4 C16         15.1010    35.6910   -15.5040 ca         1 IB7       0.326000
      5 C17         16.1310    39.8540   -15.8730 cx         1 IB7      -0.209000
      6 C18         13.0340    36.4460   -14.1610 c          1 IB7       0.521600
      7 C21         15.4450    33.1110   -15.4870 ca         1 IB7       0.218000
      8 C22         14.7390    31.9040   -15.6880 ca         1 IB7       0.054400
      9 C24         16.7130    30.7300   -15.6750 ca         1 IB7       0.077900
     10 C26         16.8510    33.0020   -15.3650 ca         1 IB7       0.054400
     11 C27         15.0780    40.9400   -15.9820 cx         1 IB7      -0.099900
     12 C28         15.9210    40.8320   -14.7340 cx         1 IB7      -0.099900
     13 C1          11.2760    37.6910   -12.8480 cc         1 IB7      -0.006400
     14 C2          10.7340    38.8970   -12.3240 cc         1 IB7       0.172500
     15 N3           9.6170    38.6700   -11.6380 nd         1 IB7      -0.495800
     16 N4           9.4480    37.2990   -11.7260 na         1 IB7       0.137800
     17 C5          10.4530    36.6780   -12.4630 cd         1 IB7      -0.192000
     18 C6          11.4290    40.2300   -12.5820 c          1 IB7       0.532600
     19 O7          12.4590    40.2950   -13.2490 o          1 IB7      -0.637100
     20 N8          10.8930    41.4410   -12.0420 n          1 IB7      -0.386800
     21 C9           8.3030    36.6410   -11.0830 c3         1 IB7       0.076900
     22 N10         12.4360    37.5670   -13.6110 ns         1 IB7      -0.339100
     23 C12         16.5800    37.4090   -16.3810 ca         1 IB7      -0.095000
     24 N14         14.6740    38.0700   -15.0600 nb         1 IB7      -0.646000
     25 O19         12.5540    35.3180   -14.0420 o          1 IB7      -0.655100
     26 N20         14.7500    34.3310   -15.3660 nu         1 IB7      -0.978000
     27 N23         15.3680    30.7130   -15.7880 nb         1 IB7      -0.147000
     28 N25         17.4880    31.8150   -15.4620 nb         1 IB7      -0.147000
     29 C29         11.5490    42.7440   -12.3550 c3         1 IB7       0.108000
     30 C30         12.6520    43.1700   -11.3440 c3         1 IB7       0.144300
     31 C31         13.3310    44.5140   -11.7350 c3         1 IB7       0.131600
     32 C32          9.6780    41.5090   -11.1960 c3         1 IB7       0.107300
     33 O33         12.0940    43.2880   -10.0180 oh         1 IB7      -0.668000
     34 O34         13.9630    44.4250   -13.0220 oh         1 IB7      -0.655000
     35 H1          16.8350    35.2990   -16.7590 ha         1 IB7       0.130000
     36 H2          17.0290    40.0080   -16.4660 hc         1 IB7       0.078700
     37 H3          13.6540    31.8900   -15.7760 h4         1 IB7       0.031100
     38 H4          17.2230    29.7720   -15.7550 h5         1 IB7       0.053100
     39 H5          17.4800    33.8660   -15.1610 h4         1 IB7       0.031100
     40 H6          15.2740    41.7710   -16.6550 hc         1 IB7       0.079450
     41 H7          14.0310    40.6570   -15.9060 hc         1 IB7       0.079450
     42 H8          15.4340    40.4780   -13.8280 hc         1 IB7       0.079450
     43 H9          16.6810    41.5920   -14.5700 hc         1 IB7       0.079450
     44 H10         10.4880    35.6090   -12.6390 h4         1 IB7       0.183000
     45 H11          8.3320    36.8280   -10.0030 h1         1 IB7       0.060033
     46 H12          7.3700    37.0430   -11.4980 h1         1 IB7       0.060033
     47 H13          8.3450    35.5610   -11.2650 h1         1 IB7       0.060033
     48 H14         12.9500    38.4260   -13.8170 hn         1 IB7       0.390500
     49 H15         17.4550    37.7000   -16.9560 ha         1 IB7       0.127000
     50 H16         13.7940    34.2310   -14.9850 hn         1 IB7       0.547000
     51 H17         11.9850    42.6980   -13.3610 h1         1 IB7       0.074200
     52 H18         10.7860    43.5320   -12.3920 h1         1 IB7       0.074200
     53 H19         13.4260    42.3890   -11.3510 h1         1 IB7       0.066700
     54 H20         12.5730    45.3090   -11.7430 h1         1 IB7       0.026200
     55 H21         14.0770    44.7730   -10.9720 h1         1 IB7       0.026200
     56 H22          9.4850    42.5420   -10.8810 h1         1 IB7       0.046367
     57 H23          8.8060    41.1560   -11.7610 h1         1 IB7       0.046367
     58 H24          9.8140    40.9000   -10.2930 h1         1 IB7       0.046367
     59 H25         12.8460    43.3640    -9.3900 ho         1 IB7       0.442000
     60 H26         14.3860    45.2960   -13.1970 ho         1 IB7       0.443000
@<TRIPOS>BOND
     1     1     4 ar  
     2     1    23 ar  
     3     1    35 1   
     4     2     5 1   
     5     2    23 ar  
     6     2    24 ar  
     7     3     4 ar  
     8     3     6 1   
     9     3    24 ar  
    10     4    26 1   
    11     5    11 1   
    12     5    12 1   
    13     5    36 1   
    14     6    22 1   
    15     6    25 2   
    16     7     8 ar  
    17     7    10 ar  
    18     7    26 1   
    19     8    27 ar  
    20     8    37 1   
    21     9    27 ar  
    22     9    28 ar  
    23     9    38 1   
    24    10    28 ar  
    25    10    39 1   
    26    11    12 1   
    27    11    40 1   
    28    11    41 1   
    29    12    42 1   
    30    12    43 1   
    31    13    14 1   
    32    13    17 2   
    33    13    22 1   
    34    14    15 2   
    35    14    18 1   
    36    15    16 1   
    37    16    17 1   
    38    16    21 1   
    39    17    44 1   
    40    18    19 2   
    41    18    20 1   
    42    20    29 1   
    43    20    32 1   
    44    21    45 1   
    45    21    46 1   
    46    21    47 1   
    47    22    48 1   
    48    23    49 1   
    49    26    50 1   
    50    29    30 1   
    51    29    51 1   
    52    29    52 1   
    53    30    31 1   
    54    30    33 1   
    55    30    53 1   
    56    31    34 1   
    57    31    54 1   
    58    31    55 1   
    59    32    56 1   
    60    32    57 1   
    61    32    58 1   
    62    33    59 1   
    63    34    60 1   
@<TRIPOS>SUBSTRUCTURE
     1 IB7         1 TEMP              0 ****  ****    0 ROOT
