@<TRIPOS>MOLECULE
IB7
   60    63     1     0     0
SMALL
abcg2


@<TRIPOS>ATOM
      1 C11         16.1410    36.0450   -16.3340 ca         1 IB7      -0.152000
      2 C13         15.8320    38.3540   -15.7370 ca         1 IB7       0.357300
      3 C15         14.3870    36.7580   -14.8700 ca         1 IB7       0.228500
      4 C16         15.0610    35.6920   -15.5060 ca         1 IB7       0.326000
      5 C17         16.2500    39.7730   -15.8140 cx         1 IB7      -0.209000
      6 C18         13.1630    36.5370   -14.0400 c          1 IB7       0.521600
      7 C21         15.3040    33.2160   -15.6150 ca         1 IB7       0.218000
      8 C22         14.5700    32.0430   -15.8380 ca         1 IB7       0.054400
      9 C24         16.4810    30.8420   -16.0640 ca         1 IB7       0.077900
     10 C26         16.6950    33.0630   -15.6120 ca         1 IB7       0.054400
     11 C27         15.2230    40.8790   -15.7210 cx         1 IB7      -0.099900
     12 C28         16.1670    40.6540   -14.5850 cx         1 IB7      -0.099900
     13 C1          11.5450    37.7460   -12.6720 cc         1 IB7      -0.006400
     14 C2          10.9720    38.9620   -12.2040 cc         1 IB7       0.172500
     15 N3           9.9090    38.6970   -11.4290 nd         1 IB7      -0.495800
     16 N4           9.7970    37.3720   -11.4060 na         1 IB7       0.137800
     17 C5          10.7500    36.7450   -12.1440 cd         1 IB7      -0.192000
     18 C6          11.5330    40.3010   -12.4890 c          1 IB7       0.532600
     19 O7          12.7010    40.3510   -12.9200 o          1 IB7      -0.637100
     20 N8          10.8120    41.4280   -12.3040 n          1 IB7      -0.386800
     21 C9           8.7180    36.7430   -10.6660 c3         1 IB7       0.076900
     22 N10         12.6700    37.6570   -13.4750 ns         1 IB7      -0.339100
     23 C12         16.5260    37.3600   -16.4450 ca         1 IB7      -0.095000
     24 N14         14.7840    38.0310   -14.9930 nb         1 IB7      -0.646000
     25 O19         12.6400    35.4220   -13.8900 o          1 IB7      -0.655100
     26 N20         14.6240    34.3920   -15.3570 nu         1 IB7      -0.978000
     27 N23         15.1480    30.8670   -16.0570 nb         1 IB7      -0.147000
     28 N25         17.2760    31.8860   -15.8430 nb         1 IB7      -0.147000
     29 C29         11.4980    42.7000   -12.5330 c3         1 IB7       0.108000
     30 C30         12.2800    43.1900   -11.3230 c3         1 IB7       0.144300
     31 C31         13.1860    44.3600   -11.6830 c3         1 IB7       0.131600
     32 C32          9.4230    41.4790   -11.8540 c3         1 IB7       0.107300
     33 O33         11.3330    43.5950   -10.3310 oh         1 IB7      -0.668000
     34 O34         14.2270    43.8800   -12.5330 oh         1 IB7      -0.655000
     35 H1          16.6570    35.2880   -16.9050 ha         1 IB7       0.130000
     36 H2          17.0900    39.9480   -16.4730 hc         1 IB7       0.078700
     37 H3          13.4850    32.0770   -15.8280 h4         1 IB7       0.031100
     38 H4          16.9580    29.8870   -16.2580 h5         1 IB7       0.053100
     39 H5          17.3530    33.8960   -15.4010 h4         1 IB7       0.031100
     40 H6          15.3680    41.7450   -16.3520 hc         1 IB7       0.079450
     41 H7          14.1960    40.5690   -15.5830 hc         1 IB7       0.079450
     42 H8          15.7720    40.1930   -13.6910 hc         1 IB7       0.079450
     43 H9          16.9690    41.3640   -14.4280 hc         1 IB7       0.079450
     44 H10         10.7950    35.6770   -12.2320 h4         1 IB7       0.183000
     45 H11          8.7380    37.0860    -9.6330 h1         1 IB7       0.060033
     46 H12          7.7600    36.9970   -11.1170 h1         1 IB7       0.060033
     47 H13          8.8620    35.6660   -10.6960 h1         1 IB7       0.060033
     48 H14         13.1560    38.5320   -13.6500 hn         1 IB7       0.390500
     49 H15         17.3550    37.6310   -17.0860 ha         1 IB7       0.127000
     50 H16         13.7190    34.3210   -14.8990 hn         1 IB7       0.547000
     51 H17         12.1840    42.5830   -13.3680 h1         1 IB7       0.074200
     52 H18         10.7490    43.4460   -12.7970 h1         1 IB7       0.074200
     53 H19         12.8990    42.3700   -10.9430 h1         1 IB7       0.066700
     54 H20         12.5980    45.1390   -12.1820 h1         1 IB7       0.026200
     55 H21         13.6000    44.7800   -10.7590 h1         1 IB7       0.026200
     56 H22          9.0020    42.4290   -12.1770 h1         1 IB7       0.046367
     57 H23          8.8490    40.6690   -12.2920 h1         1 IB7       0.046367
     58 H24          9.3460    41.4150   -10.7680 h1         1 IB7       0.046367
     59 H25         11.8020    43.7400    -9.5010 ho         1 IB7       0.442000
     60 H26         14.7500    44.6330   -12.8320 ho         1 IB7       0.443000
@<TRIPOS>BOND
     1     1     4 ar  
     2     1    23 ar  
     3     1    35 1   
     4     2     5 1   
     5     2    23 ar  
     6     2    24 ar  
     7     3     4 ar  
     8     3     6 1   
     9     3    24 ar  
    10     4    26 1   
    11     5    11 1   
    12     5    12 1   
    13     5    36 1   
    14     6    22 1   
    15     6    25 2   
    16     7     8 ar  
    17     7    10 ar  
    18     7    26 1   
    19     8    27 ar  
    20     8    37 1   
    21     9    27 ar  
    22     9    28 ar  
    23     9    38 1   
    24    10    28 ar  
    25    10    39 1   
    26    11    12 1   
    27    11    40 1   
    28    11    41 1   
    29    12    42 1   
    30    12    43 1   
    31    13    14 1   
    32    13    17 2   
    33    13    22 1   
    34    14    15 2   
    35    14    18 1   
    36    15    16 1   
    37    16    17 1   
    38    16    21 1   
    39    17    44 1   
    40    18    19 2   
    41    18    20 1   
    42    20    29 1   
    43    20    32 1   
    44    21    45 1   
    45    21    46 1   
    46    21    47 1   
    47    22    48 1   
    48    23    49 1   
    49    26    50 1   
    50    29    30 1   
    51    29    51 1   
    52    29    52 1   
    53    30    31 1   
    54    30    33 1   
    55    30    53 1   
    56    31    34 1   
    57    31    54 1   
    58    31    55 1   
    59    32    56 1   
    60    32    57 1   
    61    32    58 1   
    62    33    59 1   
    63    34    60 1   
@<TRIPOS>SUBSTRUCTURE
     1 IB7         1 TEMP              0 ****  ****    0 ROOT
