@<TRIPOS>MOLECULE
IB8
   71    75     1     0     0
SMALL
No Charge or Current Charge


@<TRIPOS>ATOM
      1 C28         -2.2590     1.2800    -1.9180 c3         1 IB8       0.134600
      2 C30         -4.4120    -0.0920    -0.1090 c3         1 IB8       0.175800
      3 N3          -3.4990    -0.7950    -1.0640 n3         1 IB8      -0.740600
      4 C31         -4.1560    -1.1540    -2.3460 c3         1 IB8       0.169100
      5 C25         -7.0370     1.0370     1.0770 c3         1 IB8       0.152100
      6 N2          -6.4760    -0.2900     1.4270 n3         1 IB8      -0.716600
      7 C24         -7.5150    -1.2120     1.9340 c3         1 IB8       0.152100
      8 C22         -1.3320    -0.1150     0.0580 c3         1 IB8       0.083600
      9 N1           0.1340    -0.1430    -0.1490 na         1 IB8      -0.082700
     10 C1           0.9000    -1.2810     0.0400 ca         1 IB8      -0.048200
     11 C6           0.4760    -2.6210     0.0640 ca         1 IB8      -0.120000
     12 C5           1.4320    -3.6450     0.2920 ca         1 IB8      -0.110600
     13 C8           1.0130    -5.1090     0.3290 c          1 IB8       0.710600
     14 O2           1.8700    -5.9610     0.5210 o          1 IB8      -0.722000
     15 O1          -0.1680    -5.3860     0.1650 o          1 IB8      -0.722000
     16 C4           2.7910    -3.2740     0.4880 ca         1 IB8      -0.100000
     17 C3           3.1880    -1.9230     0.4480 ca         1 IB8      -0.112000
     18 C2           2.2110    -0.9430     0.2130 ca         1 IB8      -0.109800
     19 C7           2.3280     0.4920     0.0980 cc         1 IB8      -0.110400
     20 C16          3.5800     1.3590     0.1040 c6         1 IB8       0.020500
     21 C17          4.2820     1.3230     1.4900 c6         1 IB8      -0.069900
     22 C20          5.5610     2.1980     1.4940 c6         1 IB8      -0.073900
     23 C21          6.5330     1.7750     0.3640 c6         1 IB8      -0.072400
     24 C19          5.8370     1.8140    -1.0190 c6         1 IB8      -0.073900
     25 C23         -2.1650    -0.1310    -1.2530 c3         1 IB8       0.145500
     26 C18          4.5580     0.9390    -1.0290 c6         1 IB8      -0.069900
     27 C9           1.0290     0.9580    -0.1650 cd         1 IB8      -0.035300
     28 C10          0.5470     2.3580    -0.2060 ca         1 IB8      -0.024800
     29 C11          1.0480     3.3330     0.6850 ca         1 IB8      -0.084000
     30 C12          0.5360     4.6420     0.6810 ca         1 IB8      -0.127000
     31 C13         -0.4880     4.9970    -0.2100 ca         1 IB8      -0.108000
     32 C14         -0.9970     4.0400    -1.1020 ca         1 IB8      -0.145000
     33 C15         -0.4860     2.7300    -1.0990 ca         1 IB8       0.113100
     34 O3          -0.9420     1.8410    -2.0460 os         1 IB8      -0.351100
     35 C26         -5.6660    -0.9030     0.3340 c3         1 IB8       0.156800
     36 H281        -2.7090     1.1730    -2.9130 h1         1 IB8       0.041200
     37 H282        -2.9050     1.9410    -1.3270 h1         1 IB8       0.041200
     38 H23         -1.5870    -0.7540    -1.9510 h1         1 IB8       0.096700
     39 H301        -3.8630     0.1660     0.8060 h1         1 IB8       0.032200
     40 H302        -4.7500     0.8530    -0.5550 h1         1 IB8       0.032200
     41 H261        -6.3050    -1.0700    -0.5430 h1         1 IB8       0.045700
     42 H262        -5.3110    -1.8900     0.6620 h1         1 IB8       0.045700
     43 H311        -4.5340    -0.2600    -2.8610 h1         1 IB8       0.029367
     44 H312        -3.4500    -1.6630    -3.0150 h1         1 IB8       0.029367
     45 H313        -5.0000    -1.8360    -2.1800 h1         1 IB8       0.029367
     46 H251        -7.6150     1.4460     1.9170 h1         1 IB8       0.027033
     47 H252        -6.2410     1.7560     0.8450 h1         1 IB8       0.027033
     48 H253        -7.7030     0.9630     0.2070 h1         1 IB8       0.027033
     49 H241        -8.2540    -1.4370     1.1530 h1         1 IB8       0.027033
     50 H242        -7.0660    -2.1580     2.2660 h1         1 IB8       0.027033
     51 H243        -8.0430    -0.7710     2.7900 h1         1 IB8       0.027033
     52 H221        -1.6080    -0.9870     0.6620 h1         1 IB8       0.065700
     53 H222        -1.5940     0.7710     0.6500 h1         1 IB8       0.065700
     54 H6          -0.5710    -2.8700    -0.0920 ha         1 IB8       0.136000
     55 H4           3.5460    -4.0370     0.6670 ha         1 IB8       0.127000
     56 H3           4.2310    -1.6610     0.5960 ha         1 IB8       0.090000
     57 H16          3.3180     2.4010    -0.1110 hc         1 IB8       0.036700
     58 H171         3.5930     1.6740     2.2700 hc         1 IB8       0.046700
     59 H172         4.5480     0.2930     1.7590 hc         1 IB8       0.046700
     60 H181         4.8440    -0.1150    -0.9270 hc         1 IB8       0.046700
     61 H182         4.0570     1.0300    -2.0020 hc         1 IB8       0.046700
     62 H201         5.2870     3.2540     1.3710 hc         1 IB8       0.028700
     63 H202         6.0640     2.1170     2.4680 hc         1 IB8       0.028700
     64 H211         7.4090     2.4380     0.3600 hc         1 IB8       0.031200
     65 H212         6.9090     0.7610     0.5600 hc         1 IB8       0.031200
     66 H191         5.5780     2.8510    -1.2730 hc         1 IB8       0.028700
     67 H192         6.5320     1.4670    -1.7960 hc         1 IB8       0.028700
     68 H11          1.8030     3.0690     1.4190 ha         1 IB8       0.124000
     69 H12          0.9260     5.3780     1.3800 ha         1 IB8       0.108000
     70 H13         -0.8820     6.0110    -0.2130 ha         1 IB8       0.103000
     71 H14         -1.7760     4.3180    -1.8080 ha         1 IB8       0.113000
@<TRIPOS>BOND
     1     1    25 1   
     2     1    34 1   
     3     1    36 1   
     4     1    37 1   
     5     2     3 1   
     6     2    35 1   
     7     2    39 1   
     8     2    40 1   
     9     3     4 1   
    10     3    25 1   
    11     4    43 1   
    12     4    44 1   
    13     4    45 1   
    14     5     6 1   
    15     5    46 1   
    16     5    47 1   
    17     5    48 1   
    18     6     7 1   
    19     6    35 1   
    20     7    49 1   
    21     7    50 1   
    22     7    51 1   
    23     8     9 1   
    24     8    25 1   
    25     8    52 1   
    26     8    53 1   
    27     9    10 1   
    28     9    27 1   
    29    10    11 ar  
    30    10    18 ar  
    31    11    12 ar  
    32    11    54 1   
    33    12    13 1   
    34    12    16 ar  
    35    13    14 1   
    36    13    15 1   
    37    16    17 ar  
    38    16    55 1   
    39    17    18 ar  
    40    17    56 1   
    41    18    19 1   
    42    19    20 1   
    43    19    27 2   
    44    20    21 1   
    45    20    26 1   
    46    20    57 1   
    47    21    22 1   
    48    21    58 1   
    49    21    59 1   
    50    22    23 1   
    51    22    62 1   
    52    22    63 1   
    53    23    24 1   
    54    23    64 1   
    55    23    65 1   
    56    24    26 1   
    57    24    66 1   
    58    24    67 1   
    59    25    38 1   
    60    26    60 1   
    61    26    61 1   
    62    27    28 1   
    63    28    29 ar  
    64    28    33 ar  
    65    29    30 ar  
    66    29    68 1   
    67    30    31 ar  
    68    30    69 1   
    69    31    32 ar  
    70    31    70 1   
    71    32    33 ar  
    72    32    71 1   
    73    33    34 1   
    74    35    41 1   
    75    35    42 1   
@<TRIPOS>SUBSTRUCTURE
     1 IB8         1 TEMP              0 ****  ****    0 ROOT
