@<TRIPOS>MOLECULE
IB8
   71    75     1     0     0
SMALL
bcc


@<TRIPOS>ATOM
      1 C28         -1.9840     1.2760    -1.8300 c3         1 IB8       0.111400
      2 C30         -4.3530     0.1350    -0.4020 c3         1 IB8       0.175800
      3 N3          -3.3560    -0.6630    -1.1030 n3         1 IB8      -0.740600
      4 C31         -3.8240    -1.1440    -2.3860 c3         1 IB8       0.169100
      5 C25         -7.2250     0.7400     0.3850 c3         1 IB8       0.152100
      6 N2          -6.2600     0.0070     1.1780 n3         1 IB8      -0.716600
      7 C24         -6.9410    -0.8540     2.1220 c3         1 IB8       0.152100
      8 C22         -1.4020    -0.0700     0.2650 c3         1 IB8       0.054300
      9 N1           0.0390    -0.1450     0.2640 na         1 IB8      -0.053400
     10 C1           0.7560    -1.3110     0.2860 ca         1 IB8      -0.048200
     11 C6           0.3070    -2.6290     0.2980 ca         1 IB8      -0.138000
     12 C5           1.2440    -3.6490     0.3260 ca         1 IB8      -0.110600
     13 C8           0.7890    -5.1010     0.3370 c          1 IB8       0.921200
     14 O2           1.6830    -5.9700     0.3530 o          1 IB8      -0.827300
     15 O1          -0.4420    -5.3060     0.3300 o          1 IB8      -0.827300
     16 C4           2.6160    -3.3300     0.3400 ca         1 IB8      -0.118000
     17 C3           3.0620    -2.0250     0.3280 ca         1 IB8      -0.130000
     18 C2           2.1280    -0.9780     0.2990 ca         1 IB8      -0.109800
     19 C7           2.2180     0.4510     0.2730 cc         1 IB8      -0.110400
     20 C16          3.4490     1.2960     0.1690 c6         1 IB8       0.020500
     21 C17          4.3460     1.2160     1.4090 c6         1 IB8      -0.069900
     22 C20          5.5630     2.1280     1.2730 c6         1 IB8      -0.073900
     23 C21          6.3560     1.8220     0.0060 c6         1 IB8      -0.072400
     24 C19          5.4660     1.8930    -1.2310 c6         1 IB8      -0.073900
     25 C23         -2.0200    -0.0940    -1.1460 c3         1 IB8       0.145500
     26 C18          4.2550     0.9780    -1.0960 c6         1 IB8      -0.069900
     27 C9           0.9240     0.9110     0.2540 cd         1 IB8      -0.035300
     28 C10          0.4450     2.2930     0.2060 ca         1 IB8      -0.024800
     29 C11          0.8060     3.2190     1.1850 ca         1 IB8      -0.102000
     30 C12          0.3460     4.5260     1.1330 ca         1 IB8      -0.145000
     31 C13         -0.4900     4.9210     0.0970 ca         1 IB8      -0.126000
     32 C14         -0.8520     4.0170    -0.8910 ca         1 IB8      -0.163000
     33 C15         -0.3790     2.7110    -0.8420 ca         1 IB8       0.113100
     34 O3          -0.6720     1.8310    -1.8360 os         1 IB8      -0.327900
     35 C26         -5.3270    -0.7520     0.3660 c3         1 IB8       0.156800
     36 H281        -2.2910     1.1780    -2.8730 h1         1 IB8       0.041200
     37 H282        -2.6830     1.9670    -1.3470 h1         1 IB8       0.041200
     38 H23         -1.4080    -0.7830    -1.7390 h1         1 IB8       0.096700
     39 H301        -3.8610     0.7880     0.3230 h1         1 IB8       0.032200
     40 H302        -4.8880     0.7990    -1.0960 h1         1 IB8       0.032200
     41 H261        -5.8560    -1.4310    -0.3270 h1         1 IB8       0.045700
     42 H262        -4.7330    -1.3860     1.0290 h1         1 IB8       0.045700
     43 H311        -4.0360    -0.3490    -3.1160 h1         1 IB8       0.029367
     44 H312        -3.0840    -1.8130    -2.8280 h1         1 IB8       0.029367
     45 H313        -4.7420    -1.7180    -2.2590 h1         1 IB8       0.029367
     46 H251        -7.8880     1.3030     1.0420 h1         1 IB8       0.027033
     47 H252        -6.7350     1.4580    -0.2730 h1         1 IB8       0.027033
     48 H253        -7.8520     0.0840    -0.2390 h1         1 IB8       0.027033
     49 H241        -7.5800    -1.6100     1.6370 h1         1 IB8       0.027033
     50 H242        -6.2170    -1.3810     2.7440 h1         1 IB8       0.027033
     51 H243        -7.5760    -0.2590     2.7800 h1         1 IB8       0.027033
     52 H221        -1.7880    -0.9320     0.8110 h1         1 IB8       0.065700
     53 H222        -1.7080     0.8120     0.8300 h1         1 IB8       0.065700
     54 H6          -0.7500    -2.8670     0.2800 ha         1 IB8       0.154000
     55 H4           3.3360    -4.1360     0.3610 ha         1 IB8       0.145000
     56 H3           4.1260    -1.8210     0.3390 ha         1 IB8       0.108000
     57 H16          3.1220     2.3390     0.0790 hc         1 IB8       0.036700
     58 H171         3.7720     1.4870     2.2990 hc         1 IB8       0.046700
     59 H172         4.6800     0.1840     1.5610 hc         1 IB8       0.046700
     60 H181         4.5920    -0.0630    -1.0680 hc         1 IB8       0.046700
     61 H182         3.6080     1.0710    -1.9730 hc         1 IB8       0.046700
     62 H201         5.2270     3.1700     1.2460 hc         1 IB8       0.028700
     63 H202         6.2030     2.0330     2.1540 hc         1 IB8       0.028700
     64 H211         7.1940     2.5170    -0.0900 hc         1 IB8       0.031200
     65 H212         6.7900     0.8190     0.0830 hc         1 IB8       0.031200
     66 H191         5.1250     2.9250    -1.3740 hc         1 IB8       0.028700
     67 H192         6.0360     1.6310    -2.1250 hc         1 IB8       0.028700
     68 H11          1.4380     2.9010     2.0040 ha         1 IB8       0.142000
     69 H12          0.6330     5.2310     1.9020 ha         1 IB8       0.126000
     70 H13         -0.8570     5.9380     0.0520 ha         1 IB8       0.121000
     71 H14         -1.4870     4.3280    -1.7120 ha         1 IB8       0.131000
@<TRIPOS>BOND
     1     1    25 1   
     2     1    34 1   
     3     1    36 1   
     4     1    37 1   
     5     2     3 1   
     6     2    35 1   
     7     2    39 1   
     8     2    40 1   
     9     3     4 1   
    10     3    25 1   
    11     4    43 1   
    12     4    44 1   
    13     4    45 1   
    14     5     6 1   
    15     5    46 1   
    16     5    47 1   
    17     5    48 1   
    18     6     7 1   
    19     6    35 1   
    20     7    49 1   
    21     7    50 1   
    22     7    51 1   
    23     8     9 1   
    24     8    25 1   
    25     8    52 1   
    26     8    53 1   
    27     9    10 1   
    28     9    27 1   
    29    10    11 ar  
    30    10    18 ar  
    31    11    12 ar  
    32    11    54 1   
    33    12    13 1   
    34    12    16 ar  
    35    13    14 1   
    36    13    15 1   
    37    16    17 ar  
    38    16    55 1   
    39    17    18 ar  
    40    17    56 1   
    41    18    19 1   
    42    19    20 1   
    43    19    27 2   
    44    20    21 1   
    45    20    26 1   
    46    20    57 1   
    47    21    22 1   
    48    21    58 1   
    49    21    59 1   
    50    22    23 1   
    51    22    62 1   
    52    22    63 1   
    53    23    24 1   
    54    23    64 1   
    55    23    65 1   
    56    24    26 1   
    57    24    66 1   
    58    24    67 1   
    59    25    38 1   
    60    26    60 1   
    61    26    61 1   
    62    27    28 1   
    63    28    29 ar  
    64    28    33 ar  
    65    29    30 ar  
    66    29    68 1   
    67    30    31 ar  
    68    30    69 1   
    69    31    32 ar  
    70    31    70 1   
    71    32    33 ar  
    72    32    71 1   
    73    33    34 1   
    74    35    41 1   
    75    35    42 1   
@<TRIPOS>SUBSTRUCTURE
     1 IB8         1 TEMP              0 ****  ****    0 ROOT
