@<TRIPOS>MOLECULE
IBA
   51    52     1     0     0
SMALL
No Charge or Current Charge


@<TRIPOS>ATOM
      1 C6           4.8770     0.7270     0.2250 ca         1 IBA      -0.074000
      2 C5           4.1640     0.0840     1.2520 ca         1 IBA      -0.176000
      3 C4           4.7380    -0.0090     2.5420 ca         1 IBA       0.333000
      4 C3           6.0400     0.4810     2.7600 ca         1 IBA      -0.171000
      5 C2           6.7820     1.0910     1.7210 ca         1 IBA      -0.082600
      6 C7           6.1740     1.2120     0.4510 ca         1 IBA      -0.136000
      7 C1           8.1920     1.6210     1.9670 c          1 IBA       0.710600
      8 O21          8.6760     1.5090     3.0860 o          1 IBA      -0.721500
      9 O20          8.7960     2.1400     1.0380 o          1 IBA      -0.721500
     10 N4           4.0030    -0.6060     3.5740 nu         1 IBA      -0.997200
     11 C8           4.3380    -0.7060     5.0030 c3         1 IBA       0.251500
     12 C11          5.3160    -1.8890     5.2600 c3         1 IBA      -0.091400
     13 C9           3.0350    -0.8060     5.8400 c3         1 IBA      -0.091400
     14 C12          4.7470    -3.3060     5.0150 c3         1 IBA      -0.088600
     15 C10          2.1610     0.4680     5.8080 c3         1 IBA      -0.088600
     16 N5           2.8010    -0.3210     0.9980 n          1 IBA      -0.220400
     17 C13          2.4500    -1.6670     0.4440 c5         1 IBA       0.094400
     18 C14          1.0700    -1.8770     1.1720 c5         1 IBA      -0.095400
     19 C15          0.4750    -0.4450     1.1440 c5         1 IBA      -0.177400
     20 C16          1.6920     0.4310     1.4280 c          1 IBA       0.553000
     21 O13          1.7490     1.4550     2.0960 o          1 IBA      -0.536000
     22 C18          2.2840    -1.6190    -1.1200 c3         1 IBA       0.152600
     23 O18          3.5330    -1.4900    -1.8160 oh         1 IBA      -0.635000
     24 C17          3.4900    -2.7780     0.8260 c3         1 IBA       0.154800
     25 N17          3.0700    -4.1610     0.4480 n8         1 IBA      -1.004200
     26 H7           6.7050     1.6920    -0.3680 ha         1 IBA       0.129000
     27 H6           4.4240     0.8550    -0.7540 ha         1 IBA       0.089000
     28 H151        -0.3320    -0.2550     1.8600 hc         1 IBA       0.065700
     29 H152         0.1120    -0.2180     0.1360 hc         1 IBA       0.065700
     30 H141         1.2110    -2.2140     2.2070 hc         1 IBA       0.047200
     31 H142         0.4260    -2.6120     0.6750 hc         1 IBA       0.047200
     32 H181         1.6320    -0.7790    -1.3900 h1         1 IBA       0.011200
     33 H182         1.7750    -2.5340    -1.4490 h1         1 IBA       0.011200
     34 H18          3.3230    -1.4230    -2.7730 ho         1 IBA       0.437000
     35 H171         3.6440    -2.7500     1.9130 h1         1 IBA       0.080700
     36 H172         4.4600    -2.5520     0.3580 h1         1 IBA       0.080700
     37 H11          2.1360    -4.3460     0.8320 hn         1 IBA       0.389500
     38 H12          2.9320    -4.1970    -0.5680 hn         1 IBA       0.389500
     39 HN4          3.0430    -0.8220     3.3250 hn         1 IBA       0.468000
     40 H8           4.8440     0.2170     5.3210 h1         1 IBA       0.069700
     41 H111         6.2110    -1.7620     4.6400 hc         1 IBA       0.039950
     42 H112         5.6600    -1.8320     6.3000 hc         1 IBA       0.039950
     43 H121         3.9210    -3.5260     5.7010 hc         1 IBA       0.030700
     44 H122         4.3850    -3.4140     3.9870 hc         1 IBA       0.030700
     45 H123         5.5270    -4.0590     5.1780 hc         1 IBA       0.030700
     46 H91          3.3030    -1.0080     6.8840 hc         1 IBA       0.039950
     47 H92          2.4330    -1.6560     5.4990 hc         1 IBA       0.039950
     48 H101         2.7340     1.3400     6.1460 hc         1 IBA       0.030700
     49 H102         1.7920     0.6660     4.7950 hc         1 IBA       0.030700
     50 H103         1.2940     0.3500     6.4680 hc         1 IBA       0.030700
     51 H3           6.4850     0.3970     3.7450 ha         1 IBA       0.131000
@<TRIPOS>BOND
     1     1     2 ar  
     2     1     6 ar  
     3     1    27 1   
     4     2     3 ar  
     5     2    16 1   
     6     3     4 ar  
     7     3    10 1   
     8     4     5 ar  
     9     4    51 1   
    10     5     6 ar  
    11     5     7 1   
    12     6    26 1   
    13     7     8 1   
    14     7     9 1   
    15    10    11 1   
    16    10    39 1   
    17    11    12 1   
    18    11    13 1   
    19    11    40 1   
    20    12    14 1   
    21    12    41 1   
    22    12    42 1   
    23    13    15 1   
    24    13    46 1   
    25    13    47 1   
    26    14    43 1   
    27    14    44 1   
    28    14    45 1   
    29    15    48 1   
    30    15    49 1   
    31    15    50 1   
    32    16    17 1   
    33    16    20 1   
    34    17    18 1   
    35    17    22 1   
    36    17    24 1   
    37    18    19 1   
    38    18    30 1   
    39    18    31 1   
    40    19    20 1   
    41    19    28 1   
    42    19    29 1   
    43    20    21 2   
    44    22    23 1   
    45    22    32 1   
    46    22    33 1   
    47    23    34 1   
    48    24    25 1   
    49    24    35 1   
    50    24    36 1   
    51    25    37 1   
    52    25    38 1   
@<TRIPOS>SUBSTRUCTURE
     1 IBA         1 TEMP              0 ****  ****    0 ROOT
