@<TRIPOS>MOLECULE
IBA
   51    52     1     0     0
SMALL
bcc


@<TRIPOS>ATOM
      1 C6           4.7110     0.7400     0.3040 ca         1 IBA      -0.092000
      2 C5           4.0570     0.0600     1.3180 ca         1 IBA      -0.083400
      3 C4           4.6610    -0.0690     2.5880 ca         1 IBA       0.194600
      4 C3           5.9500     0.4620     2.7500 ca         1 IBA      -0.189000
      5 C2           6.6070     1.1240     1.7230 ca         1 IBA      -0.082600
      6 C7           5.9770     1.2710     0.4900 ca         1 IBA      -0.154000
      7 C1           8.0070     1.6850     1.9520 c          1 IBA       0.921200
      8 O21          8.4970     1.5360     3.0890 o          1 IBA      -0.826800
      9 O20          8.5470     2.2470     0.9800 o          1 IBA      -0.826800
     10 N4           3.9960    -0.6790     3.6080 nu         1 IBA      -0.803600
     11 C8           4.4300    -0.7540     4.9850 c3         1 IBA       0.251500
     12 C11          5.2880    -1.9940     5.2610 c3         1 IBA      -0.091400
     13 C9           3.2150    -0.6510     5.9060 c3         1 IBA      -0.091400
     14 C12          4.5720    -3.3220     5.0610 c3         1 IBA      -0.088600
     15 C10          2.5180     0.7000     5.8290 c3         1 IBA      -0.088600
     16 N5           2.7500    -0.4580     1.1180 n          1 IBA      -0.380000
     17 C13          2.4290    -1.7230     0.4270 c5         1 IBA       0.094400
     18 C14          0.9750    -1.9460     0.8830 c5         1 IBA      -0.095400
     19 C15          0.4270    -0.5470     1.1290 c5         1 IBA      -0.177400
     20 C16          1.6530     0.2620     1.4740 c          1 IBA       0.695500
     21 O13          1.6760     1.3690     1.9790 o          1 IBA      -0.611500
     22 C18          2.4450    -1.5770    -1.0960 c3         1 IBA       0.129400
     23 O18          3.7650    -1.5190    -1.5730 oh         1 IBA      -0.572800
     24 C17          3.3690    -2.8440     0.8970 c3         1 IBA       0.154800
     25 N17          3.1440    -4.1460     0.3100 n8         1 IBA      -0.893800
     26 H7           6.4710     1.7960    -0.3150 ha         1 IBA       0.147000
     27 H6           4.2150     0.8520    -0.6500 ha         1 IBA       0.107000
     28 H151        -0.3100    -0.4970     1.9300 hc         1 IBA       0.065700
     29 H152        -0.0360    -0.1200     0.2350 hc         1 IBA       0.065700
     30 H141         0.9680    -2.5200     1.8130 hc         1 IBA       0.047200
     31 H142         0.3930    -2.5090     0.1540 hc         1 IBA       0.047200
     32 H181         1.8720    -0.6820    -1.3750 h1         1 IBA       0.011200
     33 H182         1.9100    -2.4350    -1.5240 h1         1 IBA       0.011200
     34 H18          3.7350    -1.3710    -2.5230 ho         1 IBA       0.398000
     35 H171         3.2670    -2.9320     1.9820 h1         1 IBA       0.080700
     36 H172         4.4050    -2.5580     0.7120 h1         1 IBA       0.080700
     37 H11          2.1840    -4.4430     0.4270 hn         1 IBA       0.334300
     38 H12          3.3280    -4.1280    -0.6840 hn         1 IBA       0.334300
     39 HN4          3.0790    -1.0350     3.4040 hn         1 IBA       0.412800
     40 H8           5.0550     0.1230     5.1890 h1         1 IBA       0.069700
     41 H111         6.1680    -1.9600     4.6120 hc         1 IBA       0.039950
     42 H112         5.6660    -1.9290     6.2870 hc         1 IBA       0.039950
     43 H121         3.7350    -3.4480     5.7490 hc         1 IBA       0.030700
     44 H122         4.1850    -3.4160     4.0450 hc         1 IBA       0.030700
     45 H123         5.2540    -4.1560     5.2240 hc         1 IBA       0.030700
     46 H91          3.5490    -0.8350     6.9310 hc         1 IBA       0.039950
     47 H92          2.5010    -1.4490     5.6770 hc         1 IBA       0.039950
     48 H101         3.1980     1.5070     6.1100 hc         1 IBA       0.030700
     49 H102         2.1530     0.9110     4.8230 hc         1 IBA       0.030700
     50 H103         1.6630     0.7380     6.5050 hc         1 IBA       0.030700
     51 H3           6.4600     0.3640     3.6980 ha         1 IBA       0.149000
@<TRIPOS>BOND
     1     1     2 ar  
     2     1     6 ar  
     3     1    27 1   
     4     2     3 ar  
     5     2    16 1   
     6     3     4 ar  
     7     3    10 1   
     8     4     5 ar  
     9     4    51 1   
    10     5     6 ar  
    11     5     7 1   
    12     6    26 1   
    13     7     8 1   
    14     7     9 1   
    15    10    11 1   
    16    10    39 1   
    17    11    12 1   
    18    11    13 1   
    19    11    40 1   
    20    12    14 1   
    21    12    41 1   
    22    12    42 1   
    23    13    15 1   
    24    13    46 1   
    25    13    47 1   
    26    14    43 1   
    27    14    44 1   
    28    14    45 1   
    29    15    48 1   
    30    15    49 1   
    31    15    50 1   
    32    16    17 1   
    33    16    20 1   
    34    17    18 1   
    35    17    22 1   
    36    17    24 1   
    37    18    19 1   
    38    18    30 1   
    39    18    31 1   
    40    19    20 1   
    41    19    28 1   
    42    19    29 1   
    43    20    21 2   
    44    22    23 1   
    45    22    32 1   
    46    22    33 1   
    47    23    34 1   
    48    24    25 1   
    49    24    35 1   
    50    24    36 1   
    51    25    37 1   
    52    25    38 1   
@<TRIPOS>SUBSTRUCTURE
     1 IBA         1 TEMP              0 ****  ****    0 ROOT
