@<TRIPOS>MOLECULE
IBB
   50    55     1     0     0
SMALL
abcg2


@<TRIPOS>ATOM
      1 C1          -0.3920    -0.2560    -7.2790 c5         1 IBB       0.425000
      2 C2          -0.4610     1.2910    -8.9770 c5         1 IBB       0.114300
      3 C3           1.0180     1.0460    -8.6700 c5         1 IBB       0.114300
      4 C4          -0.5770    -0.4240    -5.7900 ca         1 IBB      -0.080300
      5 C5          -1.7530    -1.0400    -5.3230 ca         1 IBB      -0.115000
      6 C6          -2.0270    -1.1780    -3.9760 ca         1 IBB      -0.058000
      7 C7          -1.0940    -0.6780    -3.0670 ca         1 IBB       0.078400
      8 C8           0.0770    -0.0680    -3.5440 ca         1 IBB      -0.088200
      9 C9           0.3600     0.0680    -4.8970 ca         1 IBB      -0.085000
     10 C10          0.0130    -0.0830    -1.3410 cc         1 IBB       0.475400
     11 C11         -0.0530    -0.0070     2.3600 ca         1 IBB      -0.089200
     12 C12          1.1690     0.6090     2.6830 ca         1 IBB       0.087400
     13 C13          2.0300     1.0040     1.6600 ca         1 IBB      -0.055000
     14 C14          1.6430     0.7700     0.3560 ca         1 IBB      -0.125000
     15 C15          0.2060     0.1850     4.5390 cc         1 IBB       0.490400
     16 C16         -0.0790     0.0780     5.9630 ca         1 IBB      -0.160900
     17 C17          0.8990     0.4520     6.8860 ca         1 IBB      -0.039000
     18 C18          0.6690     0.3640     8.2460 ca         1 IBB      -0.183000
     19 C19         -0.5570    -0.1040     8.7180 ca         1 IBB       0.158100
     20 C20         -1.5440    -0.4790     7.8070 ca         1 IBB      -0.183000
     21 C21         -1.3020    -0.3870     6.4490 ca         1 IBB      -0.039000
     22 C22          0.4140     0.1530     0.0440 ca         1 IBB      -0.105900
     23 C23         -0.4530    -0.2460     1.0580 ca         1 IBB      -0.060000
     24 N1          -1.1500     0.8930    -7.7560 n7         1 IBB      -0.864400
     25 N2           1.0030    -0.0390    -7.6870 n7         1 IBB      -0.864400
     26 N3           0.7590     0.2970    -2.4150 na         1 IBB      -0.306600
     27 N4          -1.1020    -0.6730    -1.6970 nd         1 IBB      -0.584100
     28 N5           1.2980     0.7130     4.0400 nd         1 IBB      -0.584100
     29 N6          -0.6400    -0.2610     3.5690 na         1 IBB      -0.305600
     30 O1          -0.8380    -0.2130    10.0250 oh         1 IBB      -0.528100
     31 H1          -0.7890    -1.1520    -7.7760 h2         1 IBB       0.054700
     32 H21A        -0.7950     0.6600    -9.8060 h1         1 IBB       0.055200
     33 H22         -0.6910     2.3250    -9.2330 h1         1 IBB       0.055200
     34 H31          1.5960     0.7760    -9.5560 h1         1 IBB       0.055200
     35 H32          1.4710     1.9470    -8.2460 h1         1 IBB       0.055200
     36 H5          -2.4620    -1.4210    -6.0490 ha         1 IBB       0.118000
     37 H6          -2.9350    -1.6580    -3.6360 ha         1 IBB       0.128000
     38 H9           1.2740     0.5250    -5.2550 ha         1 IBB       0.136000
     39 H13          2.9760     1.4800     1.8810 ha         1 IBB       0.131000
     40 H14          2.3180     1.0740    -0.4330 ha         1 IBB       0.104000
     41 H17          1.8540     0.8160     6.5330 ha         1 IBB       0.124500
     42 H18          1.4470     0.6570     8.9410 ha         1 IBB       0.125500
     43 H20         -2.4990    -0.8410     8.1650 ha         1 IBB       0.125500
     44 H21         -2.0980    -0.6800     5.7760 ha         1 IBB       0.124500
     45 H23         -1.3970    -0.7190     0.8230 ha         1 IBB       0.146000
     46 HN1         -1.0620     1.6410    -7.0760 hn         1 IBB       0.418000
     47 HN2          1.3810    -0.8880    -8.0830 hn         1 IBB       0.418000
     48 HN3          1.6430     0.7790    -2.3990 hn         1 IBB       0.357000
     49 HN6         -1.5220    -0.7280     3.7060 hn         1 IBB       0.360000
     50 HO1         -0.0900     0.0760    10.5590 ho         1 IBB       0.470000
@<TRIPOS>BOND
     1     1     4 1   
     2     1    24 1   
     3     1    25 1   
     4     1    31 1   
     5     2     3 1   
     6     2    24 1   
     7     2    32 1   
     8     2    33 1   
     9     3    25 1   
    10     3    34 1   
    11     3    35 1   
    12     4     5 ar  
    13     4     9 ar  
    14     5     6 ar  
    15     5    36 1   
    16     6     7 ar  
    17     6    37 1   
    18     7     8 ar  
    19     7    27 1   
    20     8     9 ar  
    21     8    26 1   
    22     9    38 1   
    23    10    22 1   
    24    10    26 1   
    25    10    27 2   
    26    11    12 ar  
    27    11    23 ar  
    28    11    29 1   
    29    12    13 ar  
    30    12    28 1   
    31    13    14 ar  
    32    13    39 1   
    33    14    22 ar  
    34    14    40 1   
    35    15    16 1   
    36    15    28 2   
    37    15    29 1   
    38    16    17 ar  
    39    16    21 ar  
    40    17    18 ar  
    41    17    41 1   
    42    18    19 ar  
    43    18    42 1   
    44    19    20 ar  
    45    19    30 1   
    46    20    21 ar  
    47    20    43 1   
    48    21    44 1   
    49    22    23 ar  
    50    23    45 1   
    51    24    46 1   
    52    25    47 1   
    53    26    48 1   
    54    29    49 1   
    55    30    50 1   
@<TRIPOS>SUBSTRUCTURE
     1 IBB         1 TEMP              0 ****  ****    0 ROOT
