@<TRIPOS>MOLECULE
IBB
   50    55     1     0     0
SMALL
No Charge or Current Charge


@<TRIPOS>ATOM
      1 C1          -0.5860    -0.2570    -7.4070 c5         1 IBB       0.425000
      2 C2           0.0310     1.3670    -8.9790 c5         1 IBB       0.114300
      3 C3           1.3160     0.7530    -8.4100 c5         1 IBB       0.114300
      4 C4          -0.7990    -0.4050    -5.8990 ca         1 IBB      -0.080300
      5 C5          -1.9290    -1.1140    -5.4100 ca         1 IBB      -0.115000
      6 C6          -2.1560    -1.2600    -4.0230 ca         1 IBB      -0.058000
      7 C7          -1.2370    -0.6850    -3.1350 ca         1 IBB       0.078400
      8 C8          -0.1550    -0.0040    -3.6060 ca         1 IBB      -0.088200
      9 C9           0.1080     0.1640    -4.9700 ca         1 IBB      -0.085000
     10 C10         -0.1550    -0.0100    -1.3890 cc         1 IBB       0.475400
     11 C11         -0.0610     0.0390     2.3810 ca         1 IBB      -0.089200
     12 C12          1.0700     0.7480     2.6500 ca         1 IBB       0.087400
     13 C13          1.8590     1.2460     1.6060 ca         1 IBB      -0.055000
     14 C14          1.4540     0.9960     0.2760 ca         1 IBB      -0.125000
     15 C15          0.2330     0.2180     4.5720 cc         1 IBB       0.490400
     16 C16          0.0000     0.0680     6.0170 ca         1 IBB      -0.160900
     17 C17          0.9040     0.6330     6.9460 ca         1 IBB      -0.039000
     18 C18          0.6900     0.4950     8.3290 ca         1 IBB      -0.183000
     19 C19         -0.4270    -0.2080     8.8010 ca         1 IBB       0.158100
     20 C20         -1.3300    -0.7720     7.8930 ca         1 IBB      -0.183000
     21 C21         -1.1230    -0.6380     6.5090 ca         1 IBB      -0.039000
     22 C22          0.2700     0.2530    -0.0040 ca         1 IBB      -0.105900
     23 C23         -0.5020    -0.2350     1.0810 ca         1 IBB      -0.060000
     24 N1          -0.8920     1.1040    -7.8600 n7         1 IBB      -0.864400
     25 N2           0.8050    -0.5100    -7.8300 n7         1 IBB      -0.864400
     26 N3           0.5380     0.4280    -2.5170 na         1 IBB      -0.306600
     27 N4          -1.2600    -0.7030    -1.7440 nd         1 IBB      -0.584100
     28 N5           1.2760     0.8740     4.0200 nd         1 IBB      -0.584100
     29 N6          -0.6010    -0.3030     3.5830 na         1 IBB      -0.305600
     30 O1          -0.6410    -0.3450    10.1390 oh         1 IBB      -0.528100
     31 H1          -1.2450    -0.9710    -7.9220 h2         1 IBB       0.054700
     32 H21A        -0.2920     0.8500    -9.8940 h1         1 IBB       0.055200
     33 H22          0.1340     2.4390    -9.1980 h1         1 IBB       0.055200
     34 H31          2.0840     0.5840    -9.1780 h1         1 IBB       0.055200
     35 H32          1.7450     1.3980    -7.6300 h1         1 IBB       0.055200
     36 H5          -2.6360    -1.5530    -6.1110 ha         1 IBB       0.118000
     37 H6          -3.0210    -1.8030    -3.6510 ha         1 IBB       0.128000
     38 H9           0.9850     0.7120    -5.3050 ha         1 IBB       0.136000
     39 H13          2.7620     1.8130     1.8180 ha         1 IBB       0.131000
     40 H14          2.0690     1.3840    -0.5320 ha         1 IBB       0.104000
     41 H17          1.7780     1.1820     6.6010 ha         1 IBB       0.124500
     42 H18          1.3990     0.9380     9.0260 ha         1 IBB       0.125500
     43 H20         -2.1970    -1.3170     8.2600 ha         1 IBB       0.125500
     44 H21         -1.8420    -1.0880     5.8290 ha         1 IBB       0.124500
     45 H23         -1.4130    -0.8070     0.9170 ha         1 IBB       0.146000
     46 HN1         -0.6280     1.7120    -7.0810 hn         1 IBB       0.418000
     47 HN2          0.7380    -1.1890    -8.5960 hn         1 IBB       0.418000
     48 HN3          1.3930     0.9640    -2.5120 hn         1 IBB       0.357000
     49 HN6         -1.4450    -0.8340     3.7420 hn         1 IBB       0.360000
     50 HO1          0.0850     0.1090    10.6170 ho         1 IBB       0.470000
@<TRIPOS>BOND
     1     1     4 1   
     2     1    24 1   
     3     1    25 1   
     4     1    31 1   
     5     2     3 1   
     6     2    24 1   
     7     2    32 1   
     8     2    33 1   
     9     3    25 1   
    10     3    34 1   
    11     3    35 1   
    12     4     5 ar  
    13     4     9 ar  
    14     5     6 ar  
    15     5    36 1   
    16     6     7 ar  
    17     6    37 1   
    18     7     8 ar  
    19     7    27 1   
    20     8     9 ar  
    21     8    26 1   
    22     9    38 1   
    23    10    22 1   
    24    10    26 1   
    25    10    27 2   
    26    11    12 ar  
    27    11    23 ar  
    28    11    29 1   
    29    12    13 ar  
    30    12    28 1   
    31    13    14 ar  
    32    13    39 1   
    33    14    22 ar  
    34    14    40 1   
    35    15    16 1   
    36    15    28 2   
    37    15    29 1   
    38    16    17 ar  
    39    16    21 ar  
    40    17    18 ar  
    41    17    41 1   
    42    18    19 ar  
    43    18    42 1   
    44    19    20 ar  
    45    19    30 1   
    46    20    21 ar  
    47    20    43 1   
    48    21    44 1   
    49    22    23 ar  
    50    23    45 1   
    51    24    46 1   
    52    25    47 1   
    53    26    48 1   
    54    29    49 1   
    55    30    50 1   
@<TRIPOS>SUBSTRUCTURE
     1 IBB         1 TEMP              0 ****  ****    0 ROOT
