@<TRIPOS>MOLECULE
IBC
   30    31     1     0     0
SMALL
bcc


@<TRIPOS>ATOM
      1 O4          -0.9980    -0.9330     3.8220 o          1 IBC      -0.835300
      2 C11          0.0610    -0.2960     3.6550 c          1 IBC       0.932600
      3 O3           1.0100    -0.2090     4.4590 o          1 IBC      -0.835300
      4 C10          0.2220     0.4050     2.2870 c3         1 IBC       0.026500
      5 N2           1.2110     1.4610     2.3570 n8         1 IBC      -0.875800
      6 C9           0.5310    -0.7000     1.2420 c3         1 IBC      -0.069200
      7 C4           0.7190    -0.1890    -0.1590 ce         1 IBC       0.010600
      8 C1          -0.4070    -0.1610    -1.0950 cc         1 IBC      -0.301400
      9 C5           1.9180     0.2030    -0.6200 c2         1 IBC      -0.217200
     10 C6           2.1350     0.8510    -1.9590 c3         1 IBC      -0.036200
     11 C7           2.0680    -0.0850    -3.1720 c3         1 IBC      -0.060400
     12 C8           0.8830    -1.0650    -3.1160 c3         1 IBC      -0.113700
     13 C3          -0.3010    -0.5260    -2.4020 cd         1 IBC       0.294000
     14 O1          -1.4760    -0.4080    -3.0150 os         1 IBC      -0.121100
     15 N1          -2.4170     0.0390    -2.1200 nd         1 IBC      -0.500300
     16 C2          -1.7860     0.1770    -0.9890 cc         1 IBC       0.602600
     17 O2          -2.3850     0.5980     0.1150 oh         1 IBC      -0.552300
     18 H10         -0.7390     0.8520     2.0250 h1         1 IBC       0.058700
     19 HN21         2.0580     1.0900     2.7710 hn         1 IBC       0.321300
     20 HN22         1.4540     1.7720     1.4230 hn         1 IBC       0.321300
     21 H91         -0.2660    -1.4450     1.2700 hc         1 IBC       0.056700
     22 H92          1.4520    -1.2030     1.5540 hc         1 IBC       0.056700
     23 H5           2.7830     0.0810     0.0250 ha         1 IBC       0.128000
     24 H61          3.0990     1.3610    -1.9660 hc         1 IBC       0.040200
     25 H62          1.3770     1.6290    -2.0950 hc         1 IBC       0.040200
     26 H71          2.9850    -0.6710    -3.2550 hc         1 IBC       0.035200
     27 H72          2.0050     0.5280    -4.0740 hc         1 IBC       0.035200
     28 H81          1.1950    -1.9550    -2.5620 hc         1 IBC       0.060200
     29 H82          0.6090    -1.3980    -4.1170 hc         1 IBC       0.060200
     30 HO2         -3.3210     0.7720    -0.0540 ho         1 IBC       0.437000
@<TRIPOS>BOND
     1     1     2 1   
     2     2     3 1   
     3     2     4 1   
     4     4     5 1   
     5     4     6 1   
     6     4    18 1   
     7     5    19 1   
     8     5    20 1   
     9     6     7 1   
    10     6    21 1   
    11     6    22 1   
    12     7     8 1   
    13     7     9 2   
    14     8    13 2   
    15     8    16 1   
    16     9    10 1   
    17     9    23 1   
    18    10    11 1   
    19    10    24 1   
    20    10    25 1   
    21    11    12 1   
    22    11    26 1   
    23    11    27 1   
    24    12    13 1   
    25    12    28 1   
    26    12    29 1   
    27    13    14 1   
    28    14    15 1   
    29    15    16 2   
    30    16    17 1   
    31    17    30 1   
@<TRIPOS>SUBSTRUCTURE
     1 IBC         1 TEMP              0 ****  ****    0 ROOT
