@<TRIPOS>MOLECULE
IBC
   30    31     1     0     0
SMALL
No Charge or Current Charge


@<TRIPOS>ATOM
      1 O4          -1.2310    -0.0130     4.1860 o          1 IBC      -0.730000
      2 C11         -0.1470    -0.3000     3.6940 c          1 IBC       0.722000
      3 O3           0.6430    -1.0710     4.2270 o          1 IBC      -0.730000
      4 C10          0.2850     0.4190     2.3480 c3         1 IBC       0.026500
      5 N2           1.4510     1.3720     2.4470 n8         1 IBC      -0.986200
      6 C9           0.5230    -0.6280     1.2220 c3         1 IBC      -0.069200
      7 C4           0.6980    -0.0430    -0.1770 ce         1 IBC       0.010600
      8 C1          -0.4090    -0.1910    -1.1170 cc         1 IBC      -0.170800
      9 C5           1.8800     0.4380    -0.6230 c2         1 IBC      -0.267200
     10 C6           2.1240     0.9910    -2.0190 c3         1 IBC      -0.036200
     11 C7           2.0800    -0.0580    -3.1650 c3         1 IBC      -0.060400
     12 C8           0.9090    -1.0830    -3.1400 c3         1 IBC      -0.113700
     13 C3          -0.3180    -0.6220    -2.3980 cd         1 IBC       0.184300
     14 O1          -1.5530    -0.6620    -2.9970 os         1 IBC      -0.076700
     15 N1          -2.5280    -0.2230    -2.0330 nd         1 IBC      -0.500300
     16 C2          -1.7930     0.0280    -0.9720 cc         1 IBC       0.537300
     17 O2          -2.3460     0.4710     0.1570 oh         1 IBC      -0.591300
     18 H10         -0.5820     1.0200     2.0430 h1         1 IBC       0.058700
     19 HN21         2.2710     0.8550     2.7850 hn         1 IBC       0.376500
     20 HN22         1.7130     1.6650     1.4990 hn         1 IBC       0.376500
     21 H91         -0.3180    -1.3320     1.2240 hc         1 IBC       0.056700
     22 H92          1.4020    -1.2310     1.4810 hc         1 IBC       0.056700
     23 H5           2.7510     0.4690     0.0330 ha         1 IBC       0.178000
     24 H61          3.0960     1.5000    -2.0530 hc         1 IBC       0.040200
     25 H62          1.3790     1.7680    -2.2320 hc         1 IBC       0.040200
     26 H71          3.0260    -0.6140    -3.1740 hc         1 IBC       0.035200
     27 H72          2.0440     0.4880    -4.1160 hc         1 IBC       0.035200
     28 H81          1.2700    -2.0010    -2.6600 hc         1 IBC       0.060200
     29 H82          0.6530    -1.3630    -4.1690 hc         1 IBC       0.060200
     30 HO2         -3.2960     0.5230    -0.0660 ho         1 IBC       0.476000
@<TRIPOS>BOND
     1     1     2 1   
     2     2     3 1   
     3     2     4 1   
     4     4     5 1   
     5     4     6 1   
     6     4    18 1   
     7     5    19 1   
     8     5    20 1   
     9     6     7 1   
    10     6    21 1   
    11     6    22 1   
    12     7     8 1   
    13     7     9 2   
    14     8    13 2   
    15     8    16 1   
    16     9    10 1   
    17     9    23 1   
    18    10    11 1   
    19    10    24 1   
    20    10    25 1   
    21    11    12 1   
    22    11    26 1   
    23    11    27 1   
    24    12    13 1   
    25    12    28 1   
    26    12    29 1   
    27    13    14 1   
    28    14    15 1   
    29    15    16 2   
    30    16    17 1   
    31    17    30 1   
@<TRIPOS>SUBSTRUCTURE
     1 IBC         1 TEMP              0 ****  ****    0 ROOT
