@<TRIPOS>MOLECULE
IBF
   12    12     1     0     0
SMALL
bcc


@<TRIPOS>ATOM
      1 F6          -0.0060    -2.3730    -0.0060 f          1 IBF      -0.092900
      2 C6          -0.6390    -1.2080    -0.0150 ca         1 IBF       0.168900
      3 C1           0.0720    -0.0210    -0.0430 ca         1 IBF      -0.037100
      4 I1           2.1490    -0.0330    -0.0730 i          1 IBF      -0.074900
      5 C5          -2.0220    -1.2060     0.0060 ca         1 IBF       0.059900
      6 F5          -2.6940    -2.3500     0.0340 f          1 IBF      -0.094900
      7 C4          -2.7050    -0.0050    -0.0020 ca         1 IBF       0.123900
      8 F4          -4.0290     0.0020     0.0180 f          1 IBF      -0.090900
      9 C3          -2.0080     1.1890    -0.0300 ca         1 IBF       0.059900
     10 F3          -2.6670     2.3400    -0.0380 f          1 IBF      -0.094900
     11 C2          -0.6260     1.1740    -0.0510 ca         1 IBF       0.168900
     12 F2           0.0200     2.3300    -0.0780 f          1 IBF      -0.092900
@<TRIPOS>BOND
     1     1     2 1   
     2     2     3 ar  
     3     2     5 ar  
     4     3     4 1   
     5     3    11 ar  
     6     5     6 1   
     7     5     7 ar  
     8     7     8 1   
     9     7     9 ar  
    10     9    10 1   
    11     9    11 ar  
    12    11    12 1   
@<TRIPOS>SUBSTRUCTURE
     1 IBF         1 TEMP              0 ****  ****    0 ROOT
