@<TRIPOS>MOLECULE
IBF
   12    12     1     0     0
SMALL
No Charge or Current Charge


@<TRIPOS>ATOM
      1 F6           0.0320    -2.4130    -0.0060 f          1 IBF      -0.128000
      2 C6          -0.6350    -1.2340    -0.0140 ca         1 IBF       0.204000
      3 C1           0.0810    -0.0210    -0.0430 ca         1 IBF       0.100000
      4 I1           2.2620    -0.0340    -0.0750 i          1 IBF      -0.212000
      5 C5          -2.0430    -1.2270     0.0070 ca         1 IBF       0.095000
      6 F5          -2.7270    -2.3970     0.0350 f          1 IBF      -0.130000
      7 C4          -2.7390    -0.0050    -0.0010 ca         1 IBF       0.159000
      8 F4          -4.0940     0.0030     0.0190 f          1 IBF      -0.126000
      9 C3          -2.0290     1.2100    -0.0300 ca         1 IBF       0.095000
     10 F3          -2.7000     2.3870    -0.0380 f          1 IBF      -0.130000
     11 C2          -0.6210     1.2000    -0.0510 ca         1 IBF       0.204000
     12 F2           0.0590     2.3710    -0.0790 f          1 IBF      -0.128000
@<TRIPOS>BOND
     1     1     2 1   
     2     2     3 ar  
     3     2     5 ar  
     4     3     4 1   
     5     3    11 ar  
     6     5     6 1   
     7     5     7 ar  
     8     7     8 1   
     9     7     9 ar  
    10     9    10 1   
    11     9    11 ar  
    12    11    12 1   
@<TRIPOS>SUBSTRUCTURE
     1 IBF         1 TEMP              0 ****  ****    0 ROOT
