@<TRIPOS>MOLECULE
IBG
   48    48     1     0     0
SMALL
abcg2


@<TRIPOS>ATOM
      1 N1          77.3040    61.0060    -6.7070 n8         1 IBG      -0.991200
      2 CA1         76.0810    60.2150    -6.9090 c3         1 IBG       0.017500
      3 C1          75.0960    60.4890    -5.7480 c          1 IBG       0.716000
      4 O11         73.8800    60.6080    -6.0430 o          1 IBG      -0.741500
      5 O12         75.5890    60.5400    -4.5910 o          1 IBG      -0.741500
      6 CB1         76.3670    58.7080    -7.0240 c3         1 IBG      -0.074400
      7 CG1         75.1410    57.8730    -7.3600 c3         1 IBG      -0.142400
      8 CD1         75.4440    56.4040    -7.5760 c          1 IBG       0.603100
      9 OE1         76.5680    55.9210    -7.4630 o          1 IBG      -0.623100
     10 N2          74.3650    55.6550    -7.9260 ns         1 IBG      -0.506900
     11 CA2         74.4070    54.2140    -8.0090 c3         1 IBG       0.012700
     12 C2          74.0610    53.6580    -9.3990 c          1 IBG       0.591100
     13 O2          74.0170    52.4380    -9.5740 o          1 IBG      -0.653100
     14 CB2         73.5210    53.5500    -6.9450 c3         1 IBG       0.057600
     15 SG2         73.9090    54.0360    -5.2390 ss         1 IBG      -0.454000
     16 N3          73.8290    54.5620   -10.3580 ns         1 IBG      -0.441900
     17 CA3         73.6640    54.2160   -11.7520 c3         1 IBG      -0.052000
     18 C3          74.9730    54.1780   -12.5850 c          1 IBG       0.702000
     19 O31         74.8050    53.8880   -13.7960 o          1 IBG      -0.730500
     20 O32         76.0520    54.4370   -12.0080 o          1 IBG      -0.730500
     21 CS          75.6090    53.3630    -5.0740 c3         1 IBG       0.103900
     22 C1S         76.0680    53.5440    -3.6600 ca         1 IBG      -0.029300
     23 C2S         75.8070    52.6330    -2.6320 ca         1 IBG       0.217000
     24 C3S         76.2360    52.8600    -1.3280 ca         1 IBG      -0.100000
     25 I2S         74.7440    50.8310    -3.0020 i          1 IBG      -0.345000
     26 C4S         76.9350    54.0230    -1.0280 ca         1 IBG      -0.123000
     27 C5S         77.2060    54.9480    -2.0290 ca         1 IBG      -0.093000
     28 C6S         76.7750    54.7050    -3.3260 ca         1 IBG      -0.083000
     29 HN11        77.5980    60.8640    -5.7440 hn         1 IBG       0.376500
     30 HN12        78.0480    60.6450    -7.2970 hn         1 IBG       0.376500
     31 HA1C        75.6030    60.5470    -7.8350 h1         1 IBG       0.047700
     32 HCB1        76.8100    58.3630    -6.0860 hc         1 IBG       0.032700
     33 HCB2        77.1230    58.5650    -7.8010 hc         1 IBG       0.032700
     34 HCG1        74.6560    58.2530    -8.2640 hc         1 IBG       0.073200
     35 HCG2        74.3900    57.9470    -6.5680 hc         1 IBG       0.073200
     36 HN2         73.4580    56.0960    -7.8730 hn         1 IBG       0.309500
     37 HA2C        75.4450    53.9280    -7.8430 h1         1 IBG       0.104700
     38 HB21        73.5900    52.4680    -7.0410 h1         1 IBG       0.078700
     39 HB22        72.4790    53.8410    -7.0910 h1         1 IBG       0.078700
     40 HN3         74.0050    55.5280   -10.1280 hn         1 IBG       0.313500
     41 HC31        72.9890    54.9380   -12.2140 h1         1 IBG       0.037200
     42 HC32        73.1920    53.2360   -11.8150 h1         1 IBG       0.037200
     43 HCS1        76.2630    53.9100    -5.7490 h1         1 IBG       0.088200
     44 HCS2        75.5890    52.3130    -5.3630 h1         1 IBG       0.088200
     45 H3S         76.0260    52.1380    -0.5520 ha         1 IBG       0.111000
     46 H4S         77.2670    54.1980    -0.0120 ha         1 IBG       0.104000
     47 H5S         77.7520    55.8550    -1.8030 ha         1 IBG       0.122000
     48 H6S         76.9840    55.4230    -4.1100 ha         1 IBG       0.148000
@<TRIPOS>BOND
     1     1     2 1   
     2     1    29 1   
     3     1    30 1   
     4     2     3 1   
     5     2     6 1   
     6     2    31 1   
     7     3     4 1   
     8     3     5 1   
     9     6     7 1   
    10     6    32 1   
    11     6    33 1   
    12     7     8 1   
    13     7    34 1   
    14     7    35 1   
    15     8     9 2   
    16     8    10 1   
    17    10    11 1   
    18    10    36 1   
    19    11    12 1   
    20    11    14 1   
    21    11    37 1   
    22    12    13 2   
    23    12    16 1   
    24    14    15 1   
    25    14    38 1   
    26    14    39 1   
    27    15    21 1   
    28    16    17 1   
    29    16    40 1   
    30    17    18 1   
    31    17    41 1   
    32    17    42 1   
    33    18    19 1   
    34    18    20 1   
    35    21    22 1   
    36    21    43 1   
    37    21    44 1   
    38    22    23 ar  
    39    22    28 ar  
    40    23    24 ar  
    41    23    25 1   
    42    24    26 ar  
    43    24    45 1   
    44    26    27 ar  
    45    26    46 1   
    46    27    28 ar  
    47    27    47 1   
    48    28    48 1   
@<TRIPOS>SUBSTRUCTURE
     1 IBG         1 TEMP              0 ****  ****    0 ROOT
