@<TRIPOS>MOLECULE
IBG
   48    48     1     0     0
SMALL
No Charge or Current Charge


@<TRIPOS>ATOM
      1 N1          76.4820    60.9340    -8.4870 n8         1 IBG      -0.991200
      2 CA1         75.8720    60.1010    -7.3880 c3         1 IBG       0.017500
      3 C1          76.2230    60.5380    -5.9010 c          1 IBG       0.716000
      4 O11         75.3110    60.9090    -5.1740 o          1 IBG      -0.741500
      5 O12         77.4000    60.5650    -5.5600 o          1 IBG      -0.741500
      6 CB1         76.1900    58.6030    -7.6450 c3         1 IBG      -0.074400
      7 CG1         75.4530    57.6290    -6.6900 c3         1 IBG      -0.142400
      8 CD1         75.7500    56.1670    -7.0340 c          1 IBG       0.603100
      9 OE1         76.8190    55.6350    -6.7740 o          1 IBG      -0.623100
     10 N2          74.7120    55.4840    -7.6330 ns         1 IBG      -0.506900
     11 CA2         74.7040    54.0170    -7.8970 c3         1 IBG       0.012700
     12 C2          74.5400    53.6800    -9.4080 c          1 IBG       0.591100
     13 O2          74.4310    52.5290    -9.8130 o          1 IBG      -0.653100
     14 CB2         73.6210    53.3060    -7.0480 c3         1 IBG       0.057600
     15 SG2         73.7290    53.7400    -5.2420 ss         1 IBG      -0.454000
     16 N3          74.4980    54.7540   -10.2740 ns         1 IBG      -0.441900
     17 CA3         74.3170    54.6580   -11.7400 c3         1 IBG      -0.052000
     18 C3          74.5310    56.0260   -12.4440 c          1 IBG       0.702000
     19 O31         75.2120    56.0520   -13.4600 o          1 IBG      -0.730500
     20 O32         74.0530    57.0270   -11.9280 o          1 IBG      -0.730500
     21 CS          75.3480    52.9540    -4.7910 c3         1 IBG       0.103900
     22 C1S         75.6950    53.2440    -3.3370 ca         1 IBG      -0.029300
     23 C2S         75.2380    52.4200    -2.2820 ca         1 IBG       0.217000
     24 C3S         75.5780    52.7230    -0.9520 ca         1 IBG      -0.100000
     25 I2S         73.9970    50.6650    -2.6440 i          1 IBG      -0.345000
     26 C4S         76.3710    53.8460    -0.6600 ca         1 IBG      -0.123000
     27 C5S         76.8250    54.6700    -1.7020 ca         1 IBG      -0.093000
     28 C6S         76.4880    54.3710    -3.0340 ca         1 IBG      -0.083000
     29 HN11        77.5040    60.9140    -8.3850 hn         1 IBG       0.376500
     30 HN12        76.3140    60.4790    -9.3920 hn         1 IBG       0.376500
     31 HA1C        74.7830    60.2130    -7.4870 h1         1 IBG       0.047700
     32 HCB1        77.2720    58.4400    -7.5570 hc         1 IBG       0.032700
     33 HCB2        75.9150    58.3480    -8.6770 hc         1 IBG       0.032700
     34 HCG1        74.3760    57.8180    -6.7630 hc         1 IBG       0.073200
     35 HCG2        75.7920    57.8120    -5.6640 hc         1 IBG       0.073200
     36 HN2         73.8460    55.9990    -7.7510 hn         1 IBG       0.309500
     37 HA2C        75.6830    53.6050    -7.6230 h1         1 IBG       0.104700
     38 HB21        73.7130    52.2170    -7.1630 h1         1 IBG       0.078700
     39 HB22        72.6280    53.5980    -7.4140 h1         1 IBG       0.078700
     40 HN3         74.5980    55.6740    -9.8610 hn         1 IBG       0.313500
     41 HC31        73.2990    54.3120   -11.9570 h1         1 IBG       0.037200
     42 HC32        75.0340    53.9320   -12.1450 h1         1 IBG       0.037200
     43 HCS1        76.1390    53.3580    -5.4350 h1         1 IBG       0.088200
     44 HCS2        75.3010    51.8730    -4.9730 h1         1 IBG       0.088200
     45 H3S         75.2230    52.0860    -0.1470 ha         1 IBG       0.111000
     46 H4S         76.6320    54.0760     0.3710 ha         1 IBG       0.104000
     47 H5S         77.4380    55.5410    -1.4790 ha         1 IBG       0.122000
     48 H6S         76.8420    55.0190    -3.8340 ha         1 IBG       0.148000
@<TRIPOS>BOND
     1     1     2 1   
     2     1    29 1   
     3     1    30 1   
     4     2     3 1   
     5     2     6 1   
     6     2    31 1   
     7     3     4 1   
     8     3     5 1   
     9     6     7 1   
    10     6    32 1   
    11     6    33 1   
    12     7     8 1   
    13     7    34 1   
    14     7    35 1   
    15     8     9 2   
    16     8    10 1   
    17    10    11 1   
    18    10    36 1   
    19    11    12 1   
    20    11    14 1   
    21    11    37 1   
    22    12    13 2   
    23    12    16 1   
    24    14    15 1   
    25    14    38 1   
    26    14    39 1   
    27    15    21 1   
    28    16    17 1   
    29    16    40 1   
    30    17    18 1   
    31    17    41 1   
    32    17    42 1   
    33    18    19 1   
    34    18    20 1   
    35    21    22 1   
    36    21    43 1   
    37    21    44 1   
    38    22    23 ar  
    39    22    28 ar  
    40    23    24 ar  
    41    23    25 1   
    42    24    26 ar  
    43    24    45 1   
    44    26    27 ar  
    45    26    46 1   
    46    27    28 ar  
    47    27    47 1   
    48    28    48 1   
@<TRIPOS>SUBSTRUCTURE
     1 IBG         1 TEMP              0 ****  ****    0 ROOT
