@<TRIPOS>MOLECULE
IBH
   40    42     1     0     0
SMALL
No Charge or Current Charge


@<TRIPOS>ATOM
      1 F1          -3.0410    -0.2840    -1.7800 f          1 IBH      -0.174000
      2 C11         -3.2340     0.4080    -0.6350 ca         1 IBH       0.208500
      3 C12         -3.1480     1.8090    -0.6720 ca         1 IBH      -0.169000
      4 C13         -3.3280     2.5580     0.5010 ca         1 IBH      -0.057000
      5 C14         -3.5920     1.8970     1.7110 ca         1 IBH      -0.169000
      6 C15         -3.6750     0.4960     1.7470 ca         1 IBH       0.208500
      7 F           -3.9240    -0.1120     2.9290 f          1 IBH      -0.174000
      8 C10         -3.4970    -0.2700     0.5750 ca         1 IBH      -0.150300
      9 C9          -3.5620    -1.8060     0.6220 c3         1 IBH      -0.081100
     10 C8          -2.1950    -2.4060     0.9800 c          1 IBH       0.707500
     11 O           -1.7600    -2.4470     2.1200 o          1 IBH      -0.589100
     12 N3          -1.4910    -2.8710    -0.1150 ne         1 IBH      -0.763100
     13 C7          -0.5490    -2.1110    -0.5900 cd         1 IBH       0.638100
     14 N2           0.1160    -2.4810    -1.7290 na         1 IBH      -0.550500
     15 N1           1.0850    -1.6050    -2.1990 n2         1 IBH      -0.377400
     16 S1           0.0720    -0.5670    -0.0110 ss         1 IBH       0.063600
     17 C6           1.1410    -0.5730    -1.4020 cc         1 IBH       0.237200
     18 C4           2.1170     0.5850    -1.5970 c3         1 IBH       0.167400
     19 C5           2.7300     0.6230    -3.0220 c3         1 IBH      -0.094100
     20 O1           1.4200     1.8420    -1.4380 oh         1 IBH      -0.653000
     21 C3           3.2230     0.5070    -0.5510 cc         1 IBH       0.366700
     22 S            4.1910    -0.9330    -0.3530 ss         1 IBH       0.053600
     23 C2           5.0250    -0.1050     0.9300 cc         1 IBH      -0.279000
     24 N            3.4960     1.5190     0.2710 nd         1 IBH      -0.668000
     25 C1           4.5320     1.1640     1.1170 cd         1 IBH       0.308300
     26 C            5.0200     2.1480     2.1380 c3         1 IBH      -0.120400
     27 H12         -2.9390     2.3120    -1.6130 ha         1 IBH       0.136000
     28 H13         -3.2620     3.6450     0.4740 ha         1 IBH       0.121000
     29 H14         -3.7320     2.4680     2.6250 ha         1 IBH       0.136000
     30 H91C        -4.2860    -2.1280     1.3790 hc         1 IBH       0.086200
     31 H92C        -3.8830    -2.1910    -0.3520 hc         1 IBH       0.086200
     32 H2          -0.0770    -3.3430    -2.2400 hn         1 IBH       0.553000
     33 H51C         1.9440     0.7080    -3.7820 hc         1 IBH       0.058033
     34 H52C         3.4030     1.4820    -3.1330 hc         1 IBH       0.058033
     35 H53C         3.3090    -0.2850    -3.2310 hc         1 IBH       0.058033
     36 H1           1.9400     2.3230    -0.7470 ho         1 IBH       0.495000
     37 HA           5.8230    -0.6040     1.4620 h4         1 IBH       0.164000
     38 HC1          5.3800     3.0640     1.6560 hc         1 IBH       0.052700
     39 HC2          4.2160     2.4220     2.8310 hc         1 IBH       0.052700
     40 HC3          5.8450     1.7320     2.7280 hc         1 IBH       0.052700
@<TRIPOS>BOND
     1     1     2 1   
     2     2     3 ar  
     3     2     8 ar  
     4     3     4 ar  
     5     3    27 1   
     6     4     5 ar  
     7     4    28 1   
     8     5     6 ar  
     9     5    29 1   
    10     6     7 1   
    11     6     8 ar  
    12     8     9 1   
    13     9    10 1   
    14     9    30 1   
    15     9    31 1   
    16    10    11 2   
    17    10    12 1   
    18    12    13 2   
    19    13    14 1   
    20    13    16 1   
    21    14    15 1   
    22    14    32 1   
    23    15    17 2   
    24    16    17 1   
    25    17    18 1   
    26    18    19 1   
    27    18    20 1   
    28    18    21 1   
    29    19    33 1   
    30    19    34 1   
    31    19    35 1   
    32    20    36 1   
    33    21    22 1   
    34    21    24 2   
    35    22    23 1   
    36    23    25 2   
    37    23    37 1   
    38    24    25 1   
    39    25    26 1   
    40    26    38 1   
    41    26    39 1   
    42    26    40 1   
@<TRIPOS>SUBSTRUCTURE
     1 IBH         1 TEMP              0 ****  ****    0 ROOT
