@<TRIPOS>MOLECULE
IBH
   40    42     1     0     0
SMALL
abcg2


@<TRIPOS>ATOM
      1 F1          -4.4440     0.1810    -1.6960 f          1 IBH      -0.174000
      2 C11         -5.0180     0.4930    -0.5240 ca         1 IBH       0.208500
      3 C12         -5.9950     1.4650    -0.4990 ca         1 IBH      -0.169000
      4 C13         -6.5770     1.7780     0.7220 ca         1 IBH      -0.057000
      5 C14         -6.1780     1.1290     1.8810 ca         1 IBH      -0.169000
      6 C15         -5.1900     0.1670     1.7920 ca         1 IBH       0.208500
      7 F           -4.8060    -0.4560     2.9160 f          1 IBH      -0.174000
      8 C10         -4.5800    -0.1930     0.6000 ca         1 IBH      -0.150300
      9 C9          -3.5150    -1.2370     0.4920 c3         1 IBH      -0.081100
     10 C8          -2.1610    -0.6610     0.1390 c          1 IBH       0.707500
     11 O           -1.8950     0.5200     0.3090 o          1 IBH      -0.589100
     12 N3          -1.2920    -1.5840    -0.3540 ne         1 IBH      -0.763100
     13 C7          -0.1090    -1.1540    -0.6760 cd         1 IBH       0.638100
     14 N2           0.8350    -1.9540    -1.1890 na         1 IBH      -0.550500
     15 N1           2.0220    -1.4220    -1.5120 n2         1 IBH      -0.377400
     16 S1           0.5590     0.4600    -0.5670 ss         1 IBH       0.063600
     17 C6           2.0330    -0.1750    -1.2410 cc         1 IBH       0.237200
     18 C4           3.2110     0.7400    -1.4850 c3         1 IBH       0.167400
     19 C5           3.5980     0.7090    -2.9620 c3         1 IBH      -0.094100
     20 O1           2.8240     2.0290    -1.1080 oh         1 IBH      -0.653000
     21 C3           4.3660     0.3050    -0.6090 cc         1 IBH       0.366700
     22 S            5.2210    -1.1720    -0.7800 ss         1 IBH       0.053600
     23 C2           6.2230    -0.7040     0.5320 cc         1 IBH      -0.279000
     24 N            4.7900     1.0660     0.3420 nd         1 IBH      -0.668000
     25 C1           5.8510     0.5130     1.0110 cd         1 IBH       0.308300
     26 C            6.4800     1.2420     2.1470 c3         1 IBH      -0.120400
     27 H12         -6.2940     1.9660    -1.4100 ha         1 IBH       0.136000
     28 H13         -7.3470     2.5340     0.7700 ha         1 IBH       0.121000
     29 H14         -6.6240     1.3640     2.8380 ha         1 IBH       0.136000
     30 H91C        -3.4030    -1.7790     1.4340 hc         1 IBH       0.086200
     31 H92C        -3.7800    -1.9960    -0.2470 hc         1 IBH       0.086200
     32 H2           0.6830    -2.9400    -1.3550 hn         1 IBH       0.553000
     33 H51C         2.7670     1.0630    -3.5730 hc         1 IBH       0.058033
     34 H52C         4.4600     1.3530    -3.1350 hc         1 IBH       0.058033
     35 H53C         3.8460    -0.3010    -3.2850 hc         1 IBH       0.058033
     36 H1           3.3450     2.2720    -0.3250 ho         1 IBH       0.495000
     37 HA           7.0190    -1.3420     0.8820 h4         1 IBH       0.164000
     38 HC1          6.8050     2.2370     1.8390 hc         1 IBH       0.052700
     39 HC2          5.7750     1.3690     2.9690 hc         1 IBH       0.052700
     40 HC3          7.3470     0.7050     2.5240 hc         1 IBH       0.052700
@<TRIPOS>BOND
     1     1     2 1   
     2     2     3 ar  
     3     2     8 ar  
     4     3     4 ar  
     5     3    27 1   
     6     4     5 ar  
     7     4    28 1   
     8     5     6 ar  
     9     5    29 1   
    10     6     7 1   
    11     6     8 ar  
    12     8     9 1   
    13     9    10 1   
    14     9    30 1   
    15     9    31 1   
    16    10    11 2   
    17    10    12 1   
    18    12    13 2   
    19    13    14 1   
    20    13    16 1   
    21    14    15 1   
    22    14    32 1   
    23    15    17 2   
    24    16    17 1   
    25    17    18 1   
    26    18    19 1   
    27    18    20 1   
    28    18    21 1   
    29    19    33 1   
    30    19    34 1   
    31    19    35 1   
    32    20    36 1   
    33    21    22 1   
    34    21    24 2   
    35    22    23 1   
    36    23    25 2   
    37    23    37 1   
    38    24    25 1   
    39    25    26 1   
    40    26    38 1   
    41    26    39 1   
    42    26    40 1   
@<TRIPOS>SUBSTRUCTURE
     1 IBH         1 TEMP              0 ****  ****    0 ROOT
