@<TRIPOS>MOLECULE
IBI
   95   100     1     0     0
SMALL
No Charge or Current Charge


@<TRIPOS>ATOM
      1 C1          51.2280    -0.9600     9.4360 c6         1 IBI       0.151300
      2 C2          52.1110     0.3270     9.5150 c6         1 IBI       0.185300
      3 C5          53.1150    -2.2980    10.2230 c6         1 IBI       0.151300
      4 C6          53.9920    -1.0060    10.2960 c6         1 IBI       0.185300
      5 C7          49.1800    -4.6450     7.9780 c6         1 IBI      -0.090400
      6 C8          50.0330    -3.3560     8.0750 c6         1 IBI      -0.073900
      7 C11         51.1220    -6.0210     8.7860 c6         1 IBI      -0.090400
      8 C12         51.9980    -4.7480     8.8950 c6         1 IBI      -0.073900
      9 C15         47.3120    -9.2530     7.7590 ca         1 IBI      -0.085000
     10 C16         47.8820   -11.6880     6.4600 ca         1 IBI       0.075100
     11 C17         48.5260    -9.3840     7.0460 ca         1 IBI      -0.153600
     12 C18         48.7950   -10.6100     6.3930 ca         1 IBI      -0.099000
     13 C21         42.9650   -13.0490    12.5360 c6         1 IBI       0.163500
     14 N22         41.9760   -14.5610    10.7540 n          1 IBI      -0.188400
     15 C24         42.9110   -13.9880     9.8050 ca         1 IBI      -0.248000
     16 C31         44.0550   -13.6780    13.4610 c3         1 IBI      -0.093400
     17 C32         44.9870   -14.7140    12.7910 c3         1 IBI      -0.093100
     18 C33         43.9890   -10.8590    11.7080 c3         1 IBI       0.253500
     19 C34         45.5130   -10.6090    11.7680 c3         1 IBI      -0.105100
     20 C35         43.2580    -9.8510    10.7970 c3         1 IBI      -0.105100
     21 C36         40.9590   -15.5310    10.2750 c3         1 IBI       0.081300
     22 C38         49.3180   -13.1370     5.0420 c3         1 IBI       0.158900
     23 O40         50.5770    -8.3590     6.3230 o          1 IBI      -0.610100
     24 C14         46.6810   -11.5490     7.2010 ca         1 IBI       0.323000
     25 N19         45.7850   -12.6300     7.2520 nu         1 IBI      -0.920900
     26 C26         44.8190   -13.0700     8.1440 ca         1 IBI       0.400900
     27 N27         44.6660   -12.4190     9.3050 nb         1 IBI      -0.299000
     28 C25         43.7310   -12.8870    10.1510 ca         1 IBI       0.427900
     29 N23         43.6190   -12.2720    11.4260 nh         1 IBI      -0.791300
     30 N28         44.1510   -14.1600     7.7450 nb         1 IBI      -0.250000
     31 C29         43.2110   -14.6300     8.5830 ca         1 IBI       0.132900
     32 C20         41.9380   -14.1480    12.1090 c          1 IBI       0.554000
     33 O30         41.1310   -14.6080    12.9150 o          1 IBI      -0.558000
     34 C13         46.4030   -10.3210     7.8270 ca         1 IBI      -0.145000
     35 N41         49.2160    -7.0870     7.6140 ns         1 IBI      -0.497900
     36 C9          50.0530    -5.8830     7.6780 c6         1 IBI       0.110700
     37 C10         51.1580    -3.4540     9.1600 c6         1 IBI       0.174500
     38 N3          52.0200    -2.2170     9.1940 n3         1 IBI      -0.702600
     39 N4          53.1860     0.2230    10.5490 n3         1 IBI      -0.756600
     40 C42         54.0290     1.4370    10.6500 c3         1 IBI       0.209800
     41 C43         53.2820     2.6870    11.1100 cx         1 IBI      -0.103700
     42 C45         53.9060     4.0570    10.9600 cx         1 IBI      -0.132400
     43 C44         52.7100     3.6770    10.1190 cx         1 IBI      -0.132400
     44 H1          50.6560    -1.0490    10.3720 h1         1 IBI       0.038450
     45 H1A         50.5030    -0.7900     8.6280 h1         1 IBI       0.038450
     46 H2          52.5560     0.5080     8.5250 h1         1 IBI       0.033700
     47 H2A         51.4500     1.1780     9.7300 h1         1 IBI       0.033700
     48 H5          53.8010    -3.1270    10.0050 h1         1 IBI       0.038450
     49 H5A         52.6860    -2.4840    11.2190 h1         1 IBI       0.038450
     50 H6          54.7410    -1.1380    11.0900 h1         1 IBI       0.033700
     51 H6A         54.5440    -0.9060     9.3490 h1         1 IBI       0.033700
     52 H7          48.6290    -4.7920     8.9170 hc         1 IBI       0.043450
     53 H7A         48.4250    -4.5250     7.1890 hc         1 IBI       0.043450
     54 H8          50.4810    -3.1350     7.0970 hc         1 IBI       0.051450
     55 H8A         49.3460    -2.5310     8.3000 hc         1 IBI       0.051450
     56 H11         51.7640    -6.8880     8.5790 hc         1 IBI       0.043450
     57 H11A        50.6370    -6.2180     9.7520 hc         1 IBI       0.043450
     58 H12         52.7150    -4.9190     9.7060 hc         1 IBI       0.051450
     59 H12A        52.5860    -4.6250     7.9750 hc         1 IBI       0.051450
     60 H15         47.0490    -8.3270     8.2640 ha         1 IBI       0.110000
     61 H18         49.7220   -10.7110     5.8350 ha         1 IBI       0.141000
     62 H21         42.3650   -12.3630    13.1510 h1         1 IBI       0.086700
     63 H31         44.6750   -12.8800    13.8870 hc         1 IBI       0.061200
     64 H31A        43.5660   -14.1590    14.3170 hc         1 IBI       0.061200
     65 H32         44.4120   -15.5500    12.3750 hc         1 IBI       0.039367
     66 H32A        45.5650   -14.2550    11.9800 hc         1 IBI       0.039367
     67 H32B        45.6950   -15.1190    13.5240 hc         1 IBI       0.039367
     68 H33         43.6320   -10.6270    12.7220 h1         1 IBI       0.048700
     69 H34         45.9800   -10.6830    10.7810 hc         1 IBI       0.048533
     70 H34A        45.7170    -9.6060    12.1600 hc         1 IBI       0.048533
     71 H34B        45.9960   -11.3350    12.4320 hc         1 IBI       0.048533
     72 H35         43.4700    -8.8230    11.1150 hc         1 IBI       0.048533
     73 H35A        43.5650    -9.9530     9.7520 hc         1 IBI       0.048533
     74 H35B        42.1740   -10.0060    10.8520 hc         1 IBI       0.048533
     75 H36         40.6560   -15.2810     9.2510 h1         1 IBI       0.054700
     76 H36A        41.3830   -16.5420    10.2900 h1         1 IBI       0.054700
     77 H36B        40.0610   -15.5080    10.9040 h1         1 IBI       0.054700
     78 H38         49.3020   -14.1520     4.6250 h1         1 IBI       0.043700
     79 H38A        49.3930   -12.4290     4.2070 h1         1 IBI       0.043700
     80 H38B        50.2150   -13.0420     5.6680 h1         1 IBI       0.043700
     81 HN19        46.0140   -13.3370     6.5540 hn         1 IBI       0.527000
     82 H29         42.6970   -15.5330     8.2610 h4         1 IBI       0.026100
     83 H13         45.4700   -10.1790     8.3570 ha         1 IBI       0.150000
     84 HN41        48.3350    -7.0770     8.1100 hn         1 IBI       0.307500
     85 H9          50.5510    -5.7450     6.7050 h1         1 IBI       0.092700
     86 H10         50.6660    -3.5730    10.1370 h1         1 IBI       0.022700
     87 H42         54.8370     1.2560    11.3730 h1         1 IBI       0.032700
     88 H42A        54.5110     1.6410     9.6830 h1         1 IBI       0.032700
     89 H43         52.7130     2.5140    12.0200 hc         1 IBI       0.088700
     90 H45         53.7540     4.7730    11.7640 hc         1 IBI       0.065700
     91 H45A        54.8710     4.1280    10.4630 hc         1 IBI       0.065700
     92 H44         52.8740     3.4930     9.0600 hc         1 IBI       0.065700
     93 H44A        51.7530     4.1350    10.3590 hc         1 IBI       0.065700
     94 C39         49.5340    -8.2530     6.9530 c          1 IBI       0.614700
     95 O37         48.1260   -12.8960     5.8140 os         1 IBI      -0.381100
@<TRIPOS>BOND
     1     1     2 1   
     2     1    38 1   
     3     1    44 1   
     4     1    45 1   
     5     2    39 1   
     6     2    46 1   
     7     2    47 1   
     8     3     4 1   
     9     3    38 1   
    10     3    48 1   
    11     3    49 1   
    12     4    39 1   
    13     4    50 1   
    14     4    51 1   
    15     5     6 1   
    16     5    36 1   
    17     5    52 1   
    18     5    53 1   
    19     6    37 1   
    20     6    54 1   
    21     6    55 1   
    22     7     8 1   
    23     7    36 1   
    24     7    56 1   
    25     7    57 1   
    26     8    37 1   
    27     8    58 1   
    28     8    59 1   
    29     9    11 ar  
    30     9    34 ar  
    31     9    60 1   
    32    10    12 ar  
    33    10    24 ar  
    34    10    95 1   
    35    11    12 ar  
    36    11    94 1   
    37    12    61 1   
    38    13    16 1   
    39    13    29 1   
    40    13    32 1   
    41    13    62 1   
    42    14    15 1   
    43    14    21 1   
    44    14    32 1   
    45    15    28 ar  
    46    15    31 ar  
    47    16    17 1   
    48    16    63 1   
    49    16    64 1   
    50    17    65 1   
    51    17    66 1   
    52    17    67 1   
    53    18    19 1   
    54    18    20 1   
    55    18    29 1   
    56    18    68 1   
    57    19    69 1   
    58    19    70 1   
    59    19    71 1   
    60    20    72 1   
    61    20    73 1   
    62    20    74 1   
    63    21    75 1   
    64    21    76 1   
    65    21    77 1   
    66    22    78 1   
    67    22    79 1   
    68    22    80 1   
    69    22    95 1   
    70    23    94 2   
    71    24    25 1   
    72    24    34 ar  
    73    25    26 1   
    74    25    81 1   
    75    26    27 ar  
    76    26    30 ar  
    77    27    28 ar  
    78    28    29 1   
    79    30    31 ar  
    80    31    82 1   
    81    32    33 2   
    82    34    83 1   
    83    35    36 1   
    84    35    84 1   
    85    35    94 1   
    86    36    85 1   
    87    37    38 1   
    88    37    86 1   
    89    39    40 1   
    90    40    41 1   
    91    40    87 1   
    92    40    88 1   
    93    41    42 1   
    94    41    43 1   
    95    41    89 1   
    96    42    43 1   
    97    42    90 1   
    98    42    91 1   
    99    43    92 1   
   100    43    93 1   
@<TRIPOS>SUBSTRUCTURE
     1 IBI         1 TEMP              0 ****  ****    0 ROOT
