@<TRIPOS>MOLECULE
IBI
   95   100     1     0     0
SMALL
abcg2


@<TRIPOS>ATOM
      1 C1          51.2090    -1.0860     9.4270 c6         1 IBI       0.151300
      2 C2          52.0980     0.1200     9.1850 c6         1 IBI       0.185300
      3 C5          52.9950    -2.2320    10.4470 c6         1 IBI       0.151300
      4 C6          53.9150    -1.0390    10.2380 c6         1 IBI       0.185300
      5 C7          49.2000    -4.8350     8.4500 c6         1 IBI      -0.090400
      6 C8          49.9320    -3.4930     8.6260 c6         1 IBI      -0.073900
      7 C11         51.1970    -6.0830     9.2120 c6         1 IBI      -0.090400
      8 C12         51.9990    -4.7900     9.3370 c6         1 IBI      -0.073900
      9 C15         47.2260    -9.2060     7.8750 ca         1 IBI      -0.085000
     10 C16         47.7820   -11.3560     6.2020 ca         1 IBI       0.075100
     11 C17         48.3210    -9.1440     7.0200 ca         1 IBI      -0.153600
     12 C18         48.5790   -10.2290     6.1730 ca         1 IBI      -0.099000
     13 C21         42.7010   -12.8350    12.1890 c6         1 IBI       0.163500
     14 N22         42.1090   -14.5360    10.4890 n          1 IBI      -0.188400
     15 C24         43.1740   -14.0800     9.6880 ca         1 IBI      -0.248000
     16 C31         43.3800   -13.4340    13.4450 c3         1 IBI      -0.093400
     17 C32         44.5770   -14.3580    13.1320 c3         1 IBI      -0.093100
     18 C33         44.4000   -11.1190    11.8090 c3         1 IBI       0.253500
     19 C34         45.8500   -10.9110    11.3800 c3         1 IBI      -0.105100
     20 C35         43.5630    -9.8380    11.6160 c3         1 IBI      -0.105100
     21 C36         41.3050   -15.6790    10.0520 c3         1 IBI       0.081300
     22 C38         49.2670   -12.8360     4.9750 c3         1 IBI       0.158900
     23 O40         49.7230    -7.6310     5.8210 o          1 IBI      -0.610100
     24 C14         46.7130   -11.4510     7.1280 ca         1 IBI       0.323000
     25 N19         46.0710   -12.6780     7.2220 nu         1 IBI      -0.920900
     26 C26         45.0820   -13.1170     8.0790 ca         1 IBI       0.400900
     27 N27         44.8270   -12.4400     9.1960 nb         1 IBI      -0.299000
     28 C25         43.9290   -12.9290    10.0570 ca         1 IBI       0.427900
     29 N23         43.6730   -12.2890    11.2170 nh         1 IBI      -0.791300
     30 N28         44.4630   -14.2270     7.6710 nb         1 IBI      -0.250000
     31 C29         43.5160   -14.6900     8.5010 ca         1 IBI       0.132900
     32 C20         41.7760   -13.9160    11.6430 c          1 IBI       0.554000
     33 O30         40.8330   -14.2800    12.3420 o          1 IBI      -0.558000
     34 C13         46.4330   -10.3430     7.9260 ca         1 IBI      -0.145000
     35 N41         49.3880    -7.2390     8.0350 ns         1 IBI      -0.497900
     36 C9          50.1380    -5.9960     8.1260 c6         1 IBI       0.110700
     37 C10         51.1450    -3.5370     9.5810 c6         1 IBI       0.174500
     38 N3          51.9790    -2.3290     9.3870 n3         1 IBI      -0.702600
     39 N4          53.1850     0.2110    10.1380 n3         1 IBI      -0.756600
     40 C42         54.0440     1.3770     9.9660 c3         1 IBI       0.209800
     41 C43         53.4680     2.6180    10.6380 cx         1 IBI      -0.103700
     42 C45         53.9120     3.9640    10.2170 cx         1 IBI      -0.132400
     43 C44         52.5280     3.5100     9.8780 cx         1 IBI      -0.132400
     44 H1          50.6330    -0.9720    10.3630 h1         1 IBI       0.038450
     45 H1A         50.4660    -1.0810     8.6310 h1         1 IBI       0.038450
     46 H2          52.4990     0.0350     8.1540 h1         1 IBI       0.033700
     47 H2A         51.4880     1.0230     9.1880 h1         1 IBI       0.033700
     48 H5          53.6170    -3.1230    10.4400 h1         1 IBI       0.038450
     49 H5A         52.5100    -2.1370    11.4320 h1         1 IBI       0.038450
     50 H6          54.6240    -0.9920    11.0660 h1         1 IBI       0.033700
     51 H6A         54.5130    -1.2300     9.3240 h1         1 IBI       0.033700
     52 H7          48.6640    -5.0660     9.3790 hc         1 IBI       0.043450
     53 H7A         48.4660    -4.7040     7.6530 hc         1 IBI       0.043450
     54 H8          50.3090    -3.1980     7.6430 hc         1 IBI       0.051450
     55 H8A         49.1970    -2.7840     9.0020 hc         1 IBI       0.051450
     56 H11         51.8920    -6.9070     9.0260 hc         1 IBI       0.043450
     57 H11A        50.7030    -6.3020    10.1650 hc         1 IBI       0.043450
     58 H12         52.6990    -4.9200    10.1620 hc         1 IBI       0.051450
     59 H12A        52.5910    -4.6130     8.4350 hc         1 IBI       0.051450
     60 H15         46.9480    -8.3730     8.5080 ha         1 IBI       0.110000
     61 H18         49.3680   -10.1320     5.4430 ha         1 IBI       0.141000
     62 H21         42.0430   -12.0040    12.4540 h1         1 IBI       0.086700
     63 H31         43.6860   -12.6480    14.1310 hc         1 IBI       0.061200
     64 H31A        42.6270   -14.0150    13.9720 hc         1 IBI       0.061200
     65 H32         44.6900   -14.5530    12.0660 hc         1 IBI       0.039367
     66 H32A        45.5120   -13.8910    13.4470 hc         1 IBI       0.039367
     67 H32B        44.4930   -15.3000    13.6720 hc         1 IBI       0.039367
     68 H33         44.4720   -11.3820    12.8580 h1         1 IBI       0.048700
     69 H34         45.9650   -10.8140    10.3100 hc         1 IBI       0.048533
     70 H34A        46.1950    -9.9820    11.8370 hc         1 IBI       0.048533
     71 H34B        46.4820   -11.7400    11.7040 hc         1 IBI       0.048533
     72 H35         43.3900    -9.3390    12.5700 hc         1 IBI       0.048533
     73 H35A        44.0650    -9.1380    10.9480 hc         1 IBI       0.048533
     74 H35B        42.5790   -10.0650    11.2050 hc         1 IBI       0.048533
     75 H36         41.1330   -15.6270     8.9810 h1         1 IBI       0.054700
     76 H36A        41.7970   -16.6120    10.3290 h1         1 IBI       0.054700
     77 H36B        40.3520   -15.6260    10.5670 h1         1 IBI       0.054700
     78 H38         49.2180   -13.0660     3.9120 h1         1 IBI       0.043700
     79 H38A        50.0010   -12.0510     5.1410 h1         1 IBI       0.043700
     80 H38B        49.5600   -13.7290     5.5290 h1         1 IBI       0.043700
     81 HN19        46.1910   -13.2730     6.4160 hn         1 IBI       0.527000
     82 H29         43.0090   -15.5880     8.1800 h4         1 IBI       0.026100
     83 H13         45.5900   -10.3830     8.5890 ha         1 IBI       0.150000
     84 HN41        48.8420    -7.4890     8.8470 hn         1 IBI       0.307500
     85 H9          50.5930    -5.8030     7.1560 h1         1 IBI       0.092700
     86 H10         50.7430    -3.5550    10.6110 h1         1 IBI       0.022700
     87 H42         55.0320     1.1530    10.3730 h1         1 IBI       0.032700
     88 H42A        54.1600     1.5860     8.8870 h1         1 IBI       0.032700
     89 H43         53.4140     2.3950    11.6990 hc         1 IBI       0.088700
     90 H45         54.0030     4.8240    10.8790 hc         1 IBI       0.065700
     91 H45A        54.6310     4.2220     9.4410 hc         1 IBI       0.065700
     92 H44         52.2940     3.1740     8.8720 hc         1 IBI       0.065700
     93 H44A        51.6220     3.9070    10.3270 hc         1 IBI       0.065700
     94 C39         49.1840    -7.9290     6.8930 c          1 IBI       0.614700
     95 O37         47.9540   -12.4470     5.3990 os         1 IBI      -0.381100
@<TRIPOS>BOND
     1     1     2 1   
     2     1    38 1   
     3     1    44 1   
     4     1    45 1   
     5     2    39 1   
     6     2    46 1   
     7     2    47 1   
     8     3     4 1   
     9     3    38 1   
    10     3    48 1   
    11     3    49 1   
    12     4    39 1   
    13     4    50 1   
    14     4    51 1   
    15     5     6 1   
    16     5    36 1   
    17     5    52 1   
    18     5    53 1   
    19     6    37 1   
    20     6    54 1   
    21     6    55 1   
    22     7     8 1   
    23     7    36 1   
    24     7    56 1   
    25     7    57 1   
    26     8    37 1   
    27     8    58 1   
    28     8    59 1   
    29     9    11 ar  
    30     9    34 ar  
    31     9    60 1   
    32    10    12 ar  
    33    10    24 ar  
    34    10    95 1   
    35    11    12 ar  
    36    11    94 1   
    37    12    61 1   
    38    13    16 1   
    39    13    29 1   
    40    13    32 1   
    41    13    62 1   
    42    14    15 1   
    43    14    21 1   
    44    14    32 1   
    45    15    28 ar  
    46    15    31 ar  
    47    16    17 1   
    48    16    63 1   
    49    16    64 1   
    50    17    65 1   
    51    17    66 1   
    52    17    67 1   
    53    18    19 1   
    54    18    20 1   
    55    18    29 1   
    56    18    68 1   
    57    19    69 1   
    58    19    70 1   
    59    19    71 1   
    60    20    72 1   
    61    20    73 1   
    62    20    74 1   
    63    21    75 1   
    64    21    76 1   
    65    21    77 1   
    66    22    78 1   
    67    22    79 1   
    68    22    80 1   
    69    22    95 1   
    70    23    94 2   
    71    24    25 1   
    72    24    34 ar  
    73    25    26 1   
    74    25    81 1   
    75    26    27 ar  
    76    26    30 ar  
    77    27    28 ar  
    78    28    29 1   
    79    30    31 ar  
    80    31    82 1   
    81    32    33 2   
    82    34    83 1   
    83    35    36 1   
    84    35    84 1   
    85    35    94 1   
    86    36    85 1   
    87    37    38 1   
    88    37    86 1   
    89    39    40 1   
    90    40    41 1   
    91    40    87 1   
    92    40    88 1   
    93    41    42 1   
    94    41    43 1   
    95    41    89 1   
    96    42    43 1   
    97    42    90 1   
    98    42    91 1   
    99    43    92 1   
   100    43    93 1   
@<TRIPOS>SUBSTRUCTURE
     1 IBI         1 TEMP              0 ****  ****    0 ROOT
