@<TRIPOS>MOLECULE
IBJ
   55    59     1     0     0
SMALL
abcg2


@<TRIPOS>ATOM
      1 C10         15.0010    35.9330   -15.5720 ca         1 IBJ       0.340000
      2 C11         15.9380    38.5500   -15.4810 ca         1 IBJ       0.349300
      3 C15         16.5940    40.6060   -14.0550 cx         1 IBJ      -0.111900
      4 C16          9.7630    36.6580    -9.3790 ca         1 IBJ       0.326000
      5 C21         15.9700    36.3720   -16.4900 ca         1 IBJ      -0.157000
      6 C22         15.0170    33.5420   -16.2080 ca         1 IBJ       0.205000
      7 C23         16.4360    37.6620   -16.4420 ca         1 IBJ      -0.090000
      8 C24         11.4630    40.0460   -12.3390 c3         1 IBJ       0.081600
      9 C25         15.9010    31.3030   -17.3710 ca         1 IBJ       0.089900
     10 C26         16.3760    33.2730   -16.3660 ca         1 IBJ       0.065900
     11 C27         14.1530    32.5480   -16.6730 ca         1 IBJ       0.065900
     12 C1          12.1140    37.6430   -11.9570 cc         1 IBJ      -0.004400
     13 C2          14.5310    36.9050   -14.6690 ca         1 IBJ       0.218500
     14 N3          10.4510    38.5270   -10.7760 nc         1 IBJ      -0.529800
     15 C4          11.6590    36.6550   -11.1150 cd         1 IBJ      -0.176000
     16 C5          10.6140    37.2680   -10.4030 cd         1 IBJ       0.203000
     17 N6          11.3500    38.7380   -11.7300 na         1 IBJ       0.116800
     18 N7          15.0040    38.1490   -14.6450 nb         1 IBJ      -0.658000
     19 C8          13.4340    36.6180   -13.7030 c          1 IBJ       0.530600
     20 N9          13.1240    37.6630   -12.9000 ns         1 IBJ      -0.376100
     21 C12         16.4330    39.9400   -15.3960 cx         1 IBJ      -0.190000
     22 N13         14.4980    34.6580   -15.5810 nu         1 IBJ      -0.973000
     23 C14         15.5110    41.0510   -14.9720 cx         1 IBJ      -0.111900
     24 O17         12.8550    35.5410   -13.6510 o          1 IBJ      -0.610100
     25 N18         10.0260    35.3880    -9.0770 nb         1 IBJ      -0.664000
     26 N19         16.8100    32.1690   -16.9530 nb         1 IBJ      -0.150500
     27 N20         14.5890    31.4380   -17.2430 nb         1 IBJ      -0.150500
     28 O28         13.7210    40.3510   -11.6970 oh         1 IBJ      -0.675000
     29 C29          9.2800    34.7870    -8.1600 ca         1 IBJ       0.337900
     30 C30         12.4450    40.9420   -11.6150 c3         1 IBJ       0.140600
     31 C31          8.7330    37.3710    -8.7640 ca         1 IBJ      -0.138000
     32 C32          8.2350    35.4100    -7.4950 ca         1 IBJ      -0.166000
     33 C33          7.9610    36.7330    -7.8090 ca         1 IBJ      -0.079000
     34 H1          16.3160    40.0290   -13.1820 hc         1 IBJ       0.076450
     35 H2          17.4560    41.2460   -13.9190 hc         1 IBJ       0.076450
     36 H3          16.3430    35.7100   -17.2590 ha         1 IBJ       0.132000
     37 H4          17.1770    37.9930   -17.1580 ha         1 IBJ       0.127000
     38 H5          11.7540    39.9230   -13.3840 h1         1 IBJ       0.075700
     39 H6          10.4740    40.5000   -12.3290 h1         1 IBJ       0.075700
     40 H7          16.2610    30.4010   -17.8520 h5         1 IBJ       0.054100
     41 H8          17.1320    33.9590   -15.9980 h4         1 IBJ       0.032100
     42 H9          13.0790    32.6680   -16.5650 h4         1 IBJ       0.032100
     43 H10         12.0210    35.6470   -11.0210 ha         1 IBJ       0.174000
     44 H11         13.6840    38.5020   -13.0080 hn         1 IBJ       0.373500
     45 H12         17.1740    40.1900   -16.1460 hc         1 IBJ       0.083700
     46 H13         13.6620    34.5320   -15.0210 hn         1 IBJ       0.547000
     47 H14         15.6150    42.0030   -15.4770 hc         1 IBJ       0.076450
     48 H15         14.4930    40.7780   -14.7240 hc         1 IBJ       0.076450
     49 H16         14.3460    40.8650   -11.1780 ho         1 IBJ       0.456000
     50 H17          9.5270    33.7530    -7.9430 h4         1 IBJ       0.018100
     51 H18         12.4160    41.9290   -12.0920 h1         1 IBJ       0.037700
     52 H19         12.1220    41.0690   -10.5760 h1         1 IBJ       0.037700
     53 H20          8.5440    38.4010    -9.0320 ha         1 IBJ       0.136000
     54 H21          7.6570    34.8720    -6.7560 ha         1 IBJ       0.122000
     55 H22          7.1550    37.2620    -7.3180 ha         1 IBJ       0.117000
@<TRIPOS>BOND
     1     1     5 ar  
     2     1    13 ar  
     3     1    22 1   
     4     2     7 ar  
     5     2    18 ar  
     6     2    21 1   
     7     3    21 1   
     8     3    23 1   
     9     3    34 1   
    10     3    35 1   
    11     4    16 1   
    12     4    25 ar  
    13     4    31 ar  
    14     5     7 ar  
    15     5    36 1   
    16     6    10 ar  
    17     6    11 ar  
    18     6    22 1   
    19     7    37 1   
    20     8    17 1   
    21     8    30 1   
    22     8    38 1   
    23     8    39 1   
    24     9    26 ar  
    25     9    27 ar  
    26     9    40 1   
    27    10    26 ar  
    28    10    41 1   
    29    11    27 ar  
    30    11    42 1   
    31    12    15 2   
    32    12    17 1   
    33    12    20 1   
    34    13    18 ar  
    35    13    19 1   
    36    14    16 2   
    37    14    17 1   
    38    15    16 1   
    39    15    43 1   
    40    19    20 1   
    41    19    24 2   
    42    20    44 1   
    43    21    23 1   
    44    21    45 1   
    45    22    46 1   
    46    23    47 1   
    47    23    48 1   
    48    25    29 ar  
    49    28    30 1   
    50    28    49 1   
    51    29    32 ar  
    52    29    50 1   
    53    30    51 1   
    54    30    52 1   
    55    31    33 ar  
    56    31    53 1   
    57    32    33 ar  
    58    32    54 1   
    59    33    55 1   
@<TRIPOS>SUBSTRUCTURE
     1 IBJ         1 TEMP              0 ****  ****    0 ROOT
