@<TRIPOS>MOLECULE
IBJ
   55    59     1     0     0
SMALL
No Charge or Current Charge


@<TRIPOS>ATOM
      1 C10         14.8930    36.0720   -15.5970 ca         1 IBJ       0.340000
      2 C11         15.4430    38.7900   -15.8930 ca         1 IBJ       0.349300
      3 C15         17.1060    40.8310   -16.0120 cx         1 IBJ      -0.111900
      4 C16          9.3060    36.5330    -9.5850 ca         1 IBJ       0.326000
      5 C21         15.8090    36.4910   -16.5820 ca         1 IBJ      -0.157000
      6 C22         15.3000    33.5070   -15.7660 ca         1 IBJ       0.205000
      7 C23         16.0870    37.8610   -16.7270 ca         1 IBJ      -0.090000
      8 C24         11.7570    40.3300   -11.5030 c3         1 IBJ       0.081600
      9 C25         16.5640    31.1840   -16.3270 ca         1 IBJ       0.089900
     10 C26         16.7010    33.4470   -15.9620 ca         1 IBJ       0.065900
     11 C27         14.6030    32.2820   -15.8570 ca         1 IBJ       0.065900
     12 C1          11.8030    37.8070   -11.9810 cc         1 IBJ      -0.004400
     13 C2          14.2510    37.0860   -14.8110 ca         1 IBJ       0.218500
     14 N3          10.3970    38.6290   -10.3290 nc         1 IBJ      -0.529800
     15 C4          11.0930    36.7760   -11.4410 cd         1 IBJ      -0.176000
     16 C5          10.2520    37.3130   -10.4370 cd         1 IBJ       0.203000
     17 N6          11.3540    38.9270   -11.2820 na         1 IBJ       0.116800
     18 N7          14.5370    38.4220   -14.9620 nb         1 IBJ      -0.658000
     19 C8          13.1890    36.7110   -13.7730 c          1 IBJ       0.530600
     20 N9          12.7640    37.7710   -12.9880 ns         1 IBJ      -0.376100
     21 C12         15.7030    40.2620   -16.0190 cx         1 IBJ      -0.190000
     22 N13         14.6140    34.6970   -15.4450 nu         1 IBJ      -0.973000
     23 C14         16.1800    41.0970   -14.8490 cx         1 IBJ      -0.111900
     24 O17         12.7220    35.5800   -13.6540 o          1 IBJ      -0.610100
     25 N18          9.2430    35.1870    -9.7870 nb         1 IBJ      -0.664000
     26 N19         17.3340    32.2890   -16.2450 nb         1 IBJ      -0.150500
     27 N20         15.2280    31.1200   -16.1420 nb         1 IBJ      -0.150500
     28 O28         14.1910    40.0890   -11.7340 oh         1 IBJ      -0.675000
     29 C29          8.3920    34.4580    -9.0280 ca         1 IBJ       0.337900
     30 C30         13.1510    40.6830   -10.9410 c3         1 IBJ       0.140600
     31 C31          8.5080    37.1710    -8.6080 ca         1 IBJ      -0.138000
     32 C32          7.5720    35.0270    -8.0400 ca         1 IBJ      -0.166000
     33 C33          7.6270    36.4110    -7.8220 ca         1 IBJ      -0.079000
     34 H1          17.9370    40.1480   -15.8470 hc         1 IBJ       0.076450
     35 H2          17.3230    41.6560   -16.6860 hc         1 IBJ       0.076450
     36 H3          16.2850    35.7750   -17.2440 ha         1 IBJ       0.132000
     37 H4          16.7900    38.2040   -17.4820 ha         1 IBJ       0.127000
     38 H5          11.7320    40.5400   -12.5780 h1         1 IBJ       0.075700
     39 H6          11.0150    40.9810   -11.0250 h1         1 IBJ       0.075700
     40 H7          17.0720    30.2490   -16.5570 h5         1 IBJ       0.054100
     41 H8          17.3330    34.3280   -15.8670 h4         1 IBJ       0.032100
     42 H9          13.5260    32.2300   -15.7050 h4         1 IBJ       0.032100
     43 H10         11.1550    35.7290   -11.7110 ha         1 IBJ       0.174000
     44 H11         13.2670    38.6320   -13.1960 hn         1 IBJ       0.373500
     45 H12         14.9930    40.7350   -16.6930 hc         1 IBJ       0.083700
     46 H13         13.7590    34.5480   -14.8840 hn         1 IBJ       0.547000
     47 H14         15.7720    42.0990   -14.7420 hc         1 IBJ       0.076450
     48 H15         16.3880    40.5880   -13.9110 hc         1 IBJ       0.076450
     49 H16         15.0480    40.3520   -11.3290 ho         1 IBJ       0.456000
     50 H17          8.3700    33.3860    -9.2180 h4         1 IBJ       0.018100
     51 H18         13.2600    41.7760   -10.9440 h1         1 IBJ       0.037700
     52 H19         13.2170    40.3460    -9.8970 h1         1 IBJ       0.037700
     53 H20          8.5720    38.2460    -8.4610 ha         1 IBJ       0.136000
     54 H21          6.9060    34.3970    -7.4570 ha         1 IBJ       0.122000
     55 H22          7.0040    36.8830    -7.0640 ha         1 IBJ       0.117000
@<TRIPOS>BOND
     1     1     5 ar  
     2     1    13 ar  
     3     1    22 1   
     4     2     7 ar  
     5     2    18 ar  
     6     2    21 1   
     7     3    21 1   
     8     3    23 1   
     9     3    34 1   
    10     3    35 1   
    11     4    16 1   
    12     4    25 ar  
    13     4    31 ar  
    14     5     7 ar  
    15     5    36 1   
    16     6    10 ar  
    17     6    11 ar  
    18     6    22 1   
    19     7    37 1   
    20     8    17 1   
    21     8    30 1   
    22     8    38 1   
    23     8    39 1   
    24     9    26 ar  
    25     9    27 ar  
    26     9    40 1   
    27    10    26 ar  
    28    10    41 1   
    29    11    27 ar  
    30    11    42 1   
    31    12    15 2   
    32    12    17 1   
    33    12    20 1   
    34    13    18 ar  
    35    13    19 1   
    36    14    16 2   
    37    14    17 1   
    38    15    16 1   
    39    15    43 1   
    40    19    20 1   
    41    19    24 2   
    42    20    44 1   
    43    21    23 1   
    44    21    45 1   
    45    22    46 1   
    46    23    47 1   
    47    23    48 1   
    48    25    29 ar  
    49    28    30 1   
    50    28    49 1   
    51    29    32 ar  
    52    29    50 1   
    53    30    51 1   
    54    30    52 1   
    55    31    33 ar  
    56    31    53 1   
    57    32    33 ar  
    58    32    54 1   
    59    33    55 1   
@<TRIPOS>SUBSTRUCTURE
     1 IBJ         1 TEMP              0 ****  ****    0 ROOT
