@<TRIPOS>MOLECULE
IBK
   38    39     1     0     0
SMALL
bcc


@<TRIPOS>ATOM
      1 CAA          7.6310     1.5930    -0.0290 c3         1 IBK      -0.086600
      2 CAB          5.8010     0.7740     1.4850 c3         1 IBK      -0.086600
      3 OAC          2.7630     0.9530    -0.5280 o          1 IBK      -0.569100
      4 CAD         -6.2270     1.2020     0.5410 cc         1 IBK      -0.156000
      5 CAE         -5.4930     2.1700     1.1580 cd         1 IBK      -0.110100
      6 CAF         -5.4300     0.1300     0.0700 cc         1 IBK      -0.103000
      7 CAG         -1.6620    -0.5020     0.2490 cc         1 IBK      -0.365600
      8 CAH          5.5650     0.6160    -1.0270 c3         1 IBK       0.101000
      9 CAI          2.4200    -1.4220    -0.5180 c3         1 IBK       0.049400
     10 CAJ          0.2320    -2.1880    -0.3500 c3         1 IBK       0.097100
     11 NAK         -2.1340    -2.3900    -0.8710 nd         1 IBK      -0.362300
     12 NAL          4.5320    -0.3940    -0.9780 ns         1 IBK      -0.578900
     13 OAM          1.0670    -1.0960    -0.6270 os         1 IBK      -0.367600
     14 OAN         -3.2810    -1.6890    -0.6460 os         1 IBK      -0.110100
     15 SAO         -3.8260     1.7940     1.1730 ss         1 IBK      -0.034800
     16 CAP          3.2440    -0.1560    -0.6840 c          1 IBK       0.671100
     17 CAQ         -1.1740    -1.6950    -0.3350 cc         1 IBK       0.342600
     18 CAR         -2.9990    -0.5630     0.0190 cd         1 IBK       0.372200
     19 CAS         -4.0990     0.3090     0.3400 cd         1 IBK      -0.146600
     20 CAT          6.5260     0.5600     0.1620 c3         1 IBK      -0.084700
     21 HAA          8.3540     1.5460     0.7850 hc         1 IBK       0.036200
     22 HAAA         8.1720     1.4380    -0.9640 hc         1 IBK       0.036200
     23 HAAB         7.2190     2.6050    -0.0470 hc         1 IBK       0.036200
     24 HAB          5.0340     0.0180     1.6580 hc         1 IBK       0.036200
     25 HABA         6.4990     0.7280     2.3230 hc         1 IBK       0.036200
     26 HABB         5.3180     1.7540     1.5090 hc         1 IBK       0.036200
     27 HAE         -5.8430     3.0880     1.6040 h4         1 IBK       0.171000
     28 HAF         -5.8290    -0.7330    -0.4430 ha         1 IBK       0.166000
     29 HAG         -1.1030     0.2650     0.7570 ha         1 IBK       0.186000
     30 HAH          6.1260     0.4950    -1.9570 h1         1 IBK       0.059700
     31 HAHA         5.0850     1.5940    -1.0700 h1         1 IBK       0.059700
     32 HAI          2.6510    -1.8450     0.4720 h1         1 IBK       0.036700
     33 HAIA         2.7180    -2.1770    -1.2580 h1         1 IBK       0.036700
     34 HAJ          0.3400    -2.9910    -1.0890 h1         1 IBK       0.045200
     35 HAJA         0.4680    -2.6210     0.6330 h1         1 IBK       0.045200
     36 HNAL         4.8230    -1.3510    -1.1020 hn         1 IBK       0.306500
     37 HAT          6.9870    -0.4350     0.1750 hc         1 IBK       0.040700
     38 HAD         -7.3000     1.2500     0.4270 ha         1 IBK       0.157000
@<TRIPOS>BOND
     1     1    20 1   
     2     1    21 1   
     3     1    22 1   
     4     1    23 1   
     5     2    20 1   
     6     2    24 1   
     7     2    25 1   
     8     2    26 1   
     9     3    16 2   
    10     4     5 2   
    11     4     6 1   
    12     4    38 1   
    13     5    15 1   
    14     5    27 1   
    15     6    19 2   
    16     6    28 1   
    17     7    17 1   
    18     7    18 2   
    19     7    29 1   
    20     8    12 1   
    21     8    20 1   
    22     8    30 1   
    23     8    31 1   
    24     9    13 1   
    25     9    16 1   
    26     9    32 1   
    27     9    33 1   
    28    10    13 1   
    29    10    17 1   
    30    10    34 1   
    31    10    35 1   
    32    11    14 1   
    33    11    17 2   
    34    12    16 1   
    35    12    36 1   
    36    14    18 1   
    37    15    19 1   
    38    18    19 1   
    39    20    37 1   
@<TRIPOS>SUBSTRUCTURE
     1 IBK         1 TEMP              0 ****  ****    0 ROOT
