@<TRIPOS>MOLECULE
IBK
   38    39     1     0     0
SMALL
No Charge or Current Charge


@<TRIPOS>ATOM
      1 CAA          7.6650     1.6310     0.1200 c3         1 IBK      -0.086600
      2 CAB          5.4030     1.4300     1.2790 c3         1 IBK      -0.086600
      3 OAC          2.9670     0.7860    -1.1090 o          1 IBK      -0.569100
      4 CAD         -6.0280     1.3790     0.7750 cc         1 IBK      -0.138000
      5 CAE         -5.2880     2.0270     1.7340 cd         1 IBK      -0.237000
      6 CAF         -5.3040     0.3920     0.0620 cc         1 IBK      -0.085000
      7 CAG         -1.7960    -0.7940     0.2730 cc         1 IBK      -0.217000
      8 CAH          5.8040     0.3070    -1.0110 c3         1 IBK       0.101000
      9 CAI          2.4240    -1.5670    -0.6680 c3         1 IBK       0.072600
     10 CAJ          0.1150    -2.3110    -0.5010 c3         1 IBK       0.120300
     11 NAK         -2.2200    -2.2800    -1.4160 nd         1 IBK      -0.362300
     12 NAL          4.7120    -0.6620    -0.8570 ns         1 IBK      -0.511900
     13 OAM          1.0220    -1.2110    -0.7190 os         1 IBK      -0.414000
     14 OAN         -3.4050    -1.5110    -1.1110 os         1 IBK      -0.065700
     15 SAO         -3.6200     1.4210     1.7920 ss         1 IBK       0.255000
     16 CAP          3.3650    -0.3550    -0.9010 c          1 IBK       0.604100
     17 CAQ         -1.3090    -1.8100    -0.5710 cc         1 IBK       0.277300
     18 CAR         -3.0870    -0.6460    -0.0990 cd         1 IBK       0.262500
     19 CAS         -4.0040     0.2900     0.4840 cd         1 IBK      -0.291500
     20 CAT          6.4230     0.7390     0.3420 c3         1 IBK      -0.084700
     21 HAA          8.1370     1.8850     1.0770 hc         1 IBK       0.036200
     22 HAAA         8.4100     1.1140    -0.4960 hc         1 IBK       0.036200
     23 HAAB         7.3900     2.5650    -0.3850 hc         1 IBK       0.036200
     24 HAB          4.5790     0.7540     1.5340 hc         1 IBK       0.036200
     25 HABA         5.8840     1.7350     2.2170 hc         1 IBK       0.036200
     26 HABB         4.9810     2.3250     0.8040 hc         1 IBK       0.036200
     27 HAE         -5.6040     2.8140     2.4090 h4         1 IBK       0.153000
     28 HAF         -5.7540    -0.2050    -0.7290 ha         1 IBK       0.148000
     29 HAG         -1.2400    -0.2640     1.0360 ha         1 IBK       0.168000
     30 HAH          6.5830    -0.1590    -1.6310 h1         1 IBK       0.059700
     31 HAHA         5.4420     1.1920    -1.5510 h1         1 IBK       0.059700
     32 HAI          2.6770    -1.9970     0.3100 h1         1 IBK       0.036700
     33 HAIA         2.6580    -2.3180    -1.4330 h1         1 IBK       0.036700
     34 HAJ          0.2630    -3.0900    -1.2610 h1         1 IBK       0.045200
     35 HAJA         0.2820    -2.7630     0.4850 h1         1 IBK       0.045200
     36 HNAL         4.9520    -1.6310    -0.6830 hn         1 IBK       0.306500
     37 HAT          6.7680    -0.1710     0.8500 hc         1 IBK       0.040700
     38 HAD         -7.0740     1.5910     0.5680 ha         1 IBK       0.139000
@<TRIPOS>BOND
     1     1    20 1   
     2     1    21 1   
     3     1    22 1   
     4     1    23 1   
     5     2    20 1   
     6     2    24 1   
     7     2    25 1   
     8     2    26 1   
     9     3    16 2   
    10     4     5 2   
    11     4     6 1   
    12     4    38 1   
    13     5    15 1   
    14     5    27 1   
    15     6    19 2   
    16     6    28 1   
    17     7    17 1   
    18     7    18 2   
    19     7    29 1   
    20     8    12 1   
    21     8    20 1   
    22     8    30 1   
    23     8    31 1   
    24     9    13 1   
    25     9    16 1   
    26     9    32 1   
    27     9    33 1   
    28    10    13 1   
    29    10    17 1   
    30    10    34 1   
    31    10    35 1   
    32    11    14 1   
    33    11    17 2   
    34    12    16 1   
    35    12    36 1   
    36    14    18 1   
    37    15    19 1   
    38    18    19 1   
    39    20    37 1   
@<TRIPOS>SUBSTRUCTURE
     1 IBK         1 TEMP              0 ****  ****    0 ROOT
