@<TRIPOS>MOLECULE
IBL
   41    42     1     0     0
SMALL
bcc


@<TRIPOS>ATOM
      1 N1          11.4580   -17.3540    16.7640 ne         1 IBL      -0.141400
      2 C7          14.0260   -19.9590    17.3710 ca         1 IBL       0.160600
      3 C8          14.5230   -20.2440    19.6690 c3         1 IBL       0.120700
      4 C9          14.2790   -20.3610    16.0540 ca         1 IBL       0.029100
      5 O1          14.7090   -20.6200    18.3190 os         1 IBL      -0.299400
      6 C1          15.1830   -14.9750    19.1850 ca         1 IBL       0.059100
      7 C5          12.4730   -18.3290    16.5620 ca         1 IBL       0.102400
      8 C6          13.1180   -18.9390    17.6310 ca         1 IBL      -0.229500
      9 C4          12.8660   -15.9540    17.9990 ca         1 IBL       0.031400
     10 C3          14.0470   -15.9100    17.2730 ca         1 IBL      -0.113000
     11 C2          15.1990   -15.4090    17.8670 ca         1 IBL      -0.172000
     12 N           11.6150   -16.3450    17.4540 nf         1 IBL      -0.128400
     13 O           16.2400   -14.4880    19.8620 os         1 IBL      -0.341900
     14 C11         13.6120   -19.7380    14.9950 ca         1 IBL       0.160600
     15 C13         12.6810   -18.7350    15.2520 ca         1 IBL      -0.229500
     16 C14         12.8290   -15.4670    19.3050 ca         1 IBL      -0.110000
     17 C15         13.9800   -15.0050    19.9130 ca         1 IBL       0.117100
     18 O2          15.1470   -21.3750    15.8090 os         1 IBL      -0.301900
     19 H6          15.1750   -20.8840    20.2590 h1         1 IBL       0.044033
     20 H8          14.8000   -19.2010    19.8460 h1         1 IBL       0.044033
     21 H7          13.4920   -20.3970    19.9980 h1         1 IBL       0.044033
     22 H5          12.9080   -18.6180    18.6410 ha         1 IBL       0.152500
     23 H17         14.7840   -14.2590    21.4770 ho         1 IBL       0.444000
     24 H4          14.0860   -16.2390    16.2440 ha         1 IBL       0.145000
     25 H3          16.1080   -15.3710    17.2830 ha         1 IBL       0.139000
     26 H           18.1900   -13.9890    19.9280 h1         1 IBL       0.044700
     27 H2          17.8480   -15.3880    18.8920 h1         1 IBL       0.044700
     28 H1          17.4460   -13.7470    18.3350 h1         1 IBL       0.044700
     29 H10         17.0800   -21.8490    15.4100 h1         1 IBL       0.033367
     30 H11         16.5710   -20.2980    14.7210 h1         1 IBL       0.033367
     31 H9          16.8950   -20.4350    16.4620 h1         1 IBL       0.033367
     32 H14         13.6580   -20.1170    11.7750 h1         1 IBL       0.044033
     33 H13         12.1810   -19.7770    12.6950 h1         1 IBL       0.044033
     34 H12         13.4580   -18.5450    12.5690 h1         1 IBL       0.044033
     35 H15         12.1260   -18.2520    14.4590 ha         1 IBL       0.152500
     36 H16         11.8950   -15.4630    19.8550 ha         1 IBL       0.165000
     37 O3          13.9210   -20.1880    13.7680 os         1 IBL      -0.299400
     38 O4          13.9190   -14.5740    21.1860 oh         1 IBL      -0.491100
     39 C10         16.4880   -20.9540    15.5910 c3         1 IBL       0.124700
     40 C           17.4910   -14.4040    19.2070 c3         1 IBL       0.133700
     41 C12         13.2620   -19.6170    12.6550 c3         1 IBL       0.120700
@<TRIPOS>BOND
     1     1     7 1   
     2     1    12 2   
     3     2     4 ar  
     4     2     5 1   
     5     2     8 ar  
     6     3     5 1   
     7     3    19 1   
     8     3    20 1   
     9     3    21 1   
    10     4    14 ar  
    11     4    18 1   
    12     6    11 ar  
    13     6    13 1   
    14     6    17 ar  
    15     7     8 ar  
    16     7    15 ar  
    17     8    22 1   
    18     9    10 ar  
    19     9    12 1   
    20     9    16 ar  
    21    10    11 ar  
    22    10    24 1   
    23    11    25 1   
    24    13    40 1   
    25    14    15 ar  
    26    14    37 1   
    27    15    35 1   
    28    16    17 ar  
    29    16    36 1   
    30    17    38 1   
    31    18    39 1   
    32    23    38 1   
    33    26    40 1   
    34    27    40 1   
    35    28    40 1   
    36    29    39 1   
    37    30    39 1   
    38    31    39 1   
    39    32    41 1   
    40    33    41 1   
    41    34    41 1   
    42    37    41 1   
@<TRIPOS>SUBSTRUCTURE
     1 IBL         1 TEMP              0 ****  ****    0 ROOT
