@<TRIPOS>MOLECULE
IBL
   41    42     1     0     0
SMALL
No Charge or Current Charge


@<TRIPOS>ATOM
      1 N1          11.1510   -17.4980    17.0840 ne         1 IBL      -0.141400
      2 C7          13.6910   -20.1010    17.9140 ca         1 IBL       0.160600
      3 C8          13.4010   -20.9030    20.2420 c3         1 IBL       0.143900
      4 C9          14.4390   -20.1650    16.7130 ca         1 IBL       0.029100
      5 O1          14.0690   -20.9180    18.9680 os         1 IBL      -0.322600
      6 C1          15.3040   -15.1250    18.5380 ca         1 IBL       0.059100
      7 C5          12.2380   -18.3950    16.9560 ca         1 IBL       0.102400
      8 C6          12.5950   -19.2220    18.0270 ca         1 IBL      -0.211500
      9 C4          12.6760   -15.9040    17.8610 ca         1 IBL       0.031400
     10 C3          13.5100   -15.3140    16.8930 ca         1 IBL      -0.095000
     11 C2          14.8220   -14.9270    17.2250 ca         1 IBL      -0.154000
     12 N           11.3570   -16.3110    17.5150 nf         1 IBL      -0.128400
     13 O           16.5850   -14.7660    18.9200 os         1 IBL      -0.365100
     14 C11         14.0650   -19.3270    15.6160 ca         1 IBL       0.160600
     15 C13         12.9620   -18.4550    15.7580 ca         1 IBL      -0.211500
     16 C14         13.1510   -16.0910    19.1710 ca         1 IBL      -0.092000
     17 C15         14.4590   -15.7070    19.5070 ca         1 IBL       0.117100
     18 O2          15.5070   -21.0640    16.6970 os         1 IBL      -0.325100
     19 H6          13.8710   -21.6200    20.9260 h1         1 IBL       0.044033
     20 H8          13.4590   -19.9070    20.7010 h1         1 IBL       0.044033
     21 H7          12.3450   -21.1810    20.1330 h1         1 IBL       0.044033
     22 H5          12.0140   -19.1590    18.9410 ha         1 IBL       0.134500
     23 H17         15.8440   -15.5630    20.7930 ho         1 IBL       0.483000
     24 H4          13.1430   -15.1650    15.8800 ha         1 IBL       0.127000
     25 H3          15.4430   -14.4800    16.4540 ha         1 IBL       0.121000
     26 H           18.4750   -13.9700    18.5090 h1         1 IBL       0.044700
     27 H2          17.7240   -14.8460    17.1600 h1         1 IBL       0.044700
     28 H1          17.1380   -13.2220    17.6110 h1         1 IBL       0.044700
     29 H10         17.1460   -22.0330    15.8430 h1         1 IBL       0.033367
     30 H11         15.8450   -21.6370    14.7070 h1         1 IBL       0.033367
     31 H9          16.9270   -20.3520    15.3260 h1         1 IBL       0.033367
     32 H14         15.1660   -18.7120    12.4790 h1         1 IBL       0.044033
     33 H13         13.4500   -18.7080    12.9350 h1         1 IBL       0.044033
     34 H12         14.5520   -17.4560    13.5740 h1         1 IBL       0.044033
     35 H15         12.6510   -17.8020    14.9480 ha         1 IBL       0.134500
     36 H16         12.5110   -16.5420    19.9240 ha         1 IBL       0.147000
     37 O3          14.7740   -19.3600    14.4260 os         1 IBL      -0.322600
     38 O4          14.9200   -15.8980    20.7780 oh         1 IBL      -0.530100
     39 C10         16.3950   -21.2760    15.5850 c3         1 IBL       0.147900
     40 C           17.5230   -14.1730    18.0030 c3         1 IBL       0.156900
     41 C12         14.4670   -18.5160    13.3010 c3         1 IBL       0.143900
@<TRIPOS>BOND
     1     1     7 1   
     2     1    12 2   
     3     2     4 ar  
     4     2     5 1   
     5     2     8 ar  
     6     3     5 1   
     7     3    19 1   
     8     3    20 1   
     9     3    21 1   
    10     4    14 ar  
    11     4    18 1   
    12     6    11 ar  
    13     6    13 1   
    14     6    17 ar  
    15     7     8 ar  
    16     7    15 ar  
    17     8    22 1   
    18     9    10 ar  
    19     9    12 1   
    20     9    16 ar  
    21    10    11 ar  
    22    10    24 1   
    23    11    25 1   
    24    13    40 1   
    25    14    15 ar  
    26    14    37 1   
    27    15    35 1   
    28    16    17 ar  
    29    16    36 1   
    30    17    38 1   
    31    18    39 1   
    32    23    38 1   
    33    26    40 1   
    34    27    40 1   
    35    28    40 1   
    36    29    39 1   
    37    30    39 1   
    38    31    39 1   
    39    32    41 1   
    40    33    41 1   
    41    34    41 1   
    42    37    41 1   
@<TRIPOS>SUBSTRUCTURE
     1 IBL         1 TEMP              0 ****  ****    0 ROOT
