@<TRIPOS>MOLECULE
IBM
   30    31     1     0     0
SMALL
No Charge or Current Charge


@<TRIPOS>ATOM
      1 N9          -2.3130    -0.1310    -0.0420 na         1 IBM      -0.323500
      2 C8          -2.9530     0.2390    -1.2040 cc         1 IBM       0.388400
      3 N7          -2.0770     0.4100    -2.1880 nd         1 IBM      -0.578000
      4 C5          -0.8290     0.1390    -1.6350 cd         1 IBM       0.111500
      5 C4          -0.9720    -0.1890    -0.3240 cc         1 IBM       0.014600
      6 N3           0.0720    -0.5070     0.5260 n          1 IBM      -0.288000
      7 C2           1.3960    -0.5160     0.0190 c          1 IBM       0.628000
      8 N1           1.5830    -0.1930    -1.3470 n          1 IBM      -0.382400
      9 C6           0.5390     0.1600    -2.2380 c          1 IBM       0.525500
     10 O6           0.7460     0.4590    -3.4100 o          1 IBM      -0.497000
     11 O2           2.3500    -0.7890     0.7360 o          1 IBM      -0.552000
     12 C10          2.9770    -0.2020    -1.8730 c3         1 IBM       0.084300
     13 C11         -0.1720    -0.8370     1.9550 c3         1 IBM       0.102000
     14 C12         -0.4370     0.4010     2.8520 c3         1 IBM      -0.080700
     15 C13         -0.8290    -0.0260     4.2840 c3         1 IBM      -0.090100
     16 C14          0.7560     1.3860     2.8720 c3         1 IBM      -0.090100
     17 HN9         -2.7650    -0.3170     0.8430 hn         1 IBM       0.363000
     18 H8          -4.0280     0.3630    -1.2650 h5         1 IBM       0.065100
     19 H101         2.9950    -0.3400    -2.9610 h1         1 IBM       0.058033
     20 H102         3.4680     0.7480    -1.6260 h1         1 IBM       0.058033
     21 H103         3.5510    -1.0260    -1.4290 h1         1 IBM       0.058033
     22 H111         0.6720    -1.4050     2.3650 h1         1 IBM       0.068700
     23 H112        -1.0410    -1.5060     2.0050 h1         1 IBM       0.068700
     24 H12         -1.2950     0.9410     2.4330 hc         1 IBM       0.039700
     25 H131        -1.0700     0.8500     4.8990 hc         1 IBM       0.041200
     26 H132        -1.7100    -0.6790     4.2680 hc         1 IBM       0.041200
     27 H133        -0.0080    -0.5690     4.7690 hc         1 IBM       0.041200
     28 H141         1.6620     0.8940     3.2470 hc         1 IBM       0.041200
     29 H142         0.9640     1.7710     1.8670 hc         1 IBM       0.041200
     30 H143         0.5390     2.2440     3.5190 hc         1 IBM       0.041200
@<TRIPOS>BOND
     1     1     2 1   
     2     1     5 1   
     3     1    17 1   
     4     2     3 2   
     5     2    18 1   
     6     3     4 1   
     7     4     5 2   
     8     4     9 1   
     9     5     6 1   
    10     6     7 1   
    11     6    13 1   
    12     7     8 1   
    13     7    11 2   
    14     8     9 1   
    15     8    12 1   
    16     9    10 2   
    17    12    19 1   
    18    12    20 1   
    19    12    21 1   
    20    13    14 1   
    21    13    22 1   
    22    13    23 1   
    23    14    15 1   
    24    14    16 1   
    25    14    24 1   
    26    15    25 1   
    27    15    26 1   
    28    15    27 1   
    29    16    28 1   
    30    16    29 1   
    31    16    30 1   
@<TRIPOS>SUBSTRUCTURE
     1 IBM         1 TEMP              0 ****  ****    0 ROOT
