@<TRIPOS>MOLECULE
IBM
   30    31     1     0     0
SMALL
abcg2


@<TRIPOS>ATOM
      1 N9          -2.2550    -0.1280    -0.0290 na         1 IBM      -0.323500
      2 C8          -2.8590     0.2480    -1.2010 cc         1 IBM       0.388400
      3 N7          -2.0070     0.4230    -2.1620 nd         1 IBM      -0.578000
      4 C5          -0.7850     0.1520    -1.6030 cd         1 IBM       0.111500
      5 C4          -0.9330    -0.1890    -0.2840 cc         1 IBM       0.014600
      6 N3           0.0840    -0.5220     0.5500 n          1 IBM      -0.288000
      7 C2           1.3660    -0.5270     0.0400 c          1 IBM       0.628000
      8 N1           1.5250    -0.1940    -1.2980 n          1 IBM      -0.382400
      9 C6           0.5120     0.1720    -2.2010 c          1 IBM       0.525500
     10 O6           0.7570     0.4620    -3.3560 o          1 IBM      -0.497000
     11 O2           2.3230    -0.8140     0.7300 o          1 IBM      -0.552000
     12 C10          2.9020    -0.2340    -1.7800 c3         1 IBM       0.084300
     13 C11         -0.1690    -0.8240     1.9560 c3         1 IBM       0.102000
     14 C12         -0.4590     0.4140     2.8080 c3         1 IBM      -0.080700
     15 C13         -0.7610    -0.0380     4.2320 c3         1 IBM      -0.090100
     16 C14          0.6860     1.4180     2.7760 c3         1 IBM      -0.090100
     17 HN9         -2.7310    -0.3220     0.8390 hn         1 IBM       0.363000
     18 H8          -3.9290     0.3690    -1.2630 h5         1 IBM       0.065100
     19 H101         2.9090     0.0070    -2.8360 h1         1 IBM       0.058033
     20 H102         3.5180     0.4910    -1.2510 h1         1 IBM       0.058033
     21 H103         3.3250    -1.2260    -1.6430 h1         1 IBM       0.058033
     22 H111         0.7000    -1.3510     2.3420 h1         1 IBM       0.068700
     23 H112        -1.0070    -1.5240     2.0020 h1         1 IBM       0.068700
     24 H12         -1.3560     0.9080     2.4190 hc         1 IBM       0.039700
     25 H131        -1.0290     0.8150     4.8570 hc         1 IBM       0.041200
     26 H132        -1.5940    -0.7430     4.2630 hc         1 IBM       0.041200
     27 H133         0.1060    -0.5220     4.6850 hc         1 IBM       0.041200
     28 H141         1.6130     0.9720     3.1390 hc         1 IBM       0.041200
     29 H142         0.8680     1.8050     1.7720 hc         1 IBM       0.041200
     30 H143         0.4550     2.2730     3.4120 hc         1 IBM       0.041200
@<TRIPOS>BOND
     1     1     2 1   
     2     1     5 1   
     3     1    17 1   
     4     2     3 2   
     5     2    18 1   
     6     3     4 1   
     7     4     5 2   
     8     4     9 1   
     9     5     6 1   
    10     6     7 1   
    11     6    13 1   
    12     7     8 1   
    13     7    11 2   
    14     8     9 1   
    15     8    12 1   
    16     9    10 2   
    17    12    19 1   
    18    12    20 1   
    19    12    21 1   
    20    13    14 1   
    21    13    22 1   
    22    13    23 1   
    23    14    15 1   
    24    14    16 1   
    25    14    24 1   
    26    15    25 1   
    27    15    26 1   
    28    15    27 1   
    29    16    28 1   
    30    16    29 1   
    31    16    30 1   
@<TRIPOS>SUBSTRUCTURE
     1 IBM         1 TEMP              0 ****  ****    0 ROOT
