@<TRIPOS>MOLECULE
IBN
   16    15     1     0     0
SMALL
bcc


@<TRIPOS>ATOM
      1 C4           1.7500    -0.7940    -0.0230 c3         1 IBN      -0.088100
      2 C2           0.5120     0.0100     0.3600 c3         1 IBN      -0.062700
      3 C3           0.6560     1.4630    -0.0830 c3         1 IBN      -0.088100
      4 C1          -0.7380    -0.6410    -0.2240 c3         1 IBN       0.152800
      5 N           -1.9610     0.0130     0.2180 n8         1 IBN      -0.885800
      6 H41          2.6510    -0.3700     0.4230 hc         1 IBN       0.031700
      7 H42          1.6710    -1.8310     0.3090 hc         1 IBN       0.031700
      8 H43          1.8940    -0.8030    -1.1060 hc         1 IBN       0.031700
      9 H2           0.4120    -0.0100     1.4510 hc         1 IBN       0.060700
     10 H31          0.7230     1.5340    -1.1720 hc         1 IBN       0.031700
     11 H32         -0.1850     2.0780     0.2410 hc         1 IBN       0.031700
     12 H33          1.5610     1.9110     0.3310 hc         1 IBN       0.031700
     13 H11         -0.6320    -0.6770    -1.3200 h1         1 IBN       0.024700
     14 H12         -0.7760    -1.6810     0.1110 h1         1 IBN       0.024700
     15 HN1         -2.0620     0.9040    -0.2510 hn         1 IBN       0.335300
     16 HN2         -2.7570    -0.5360    -0.0810 hn         1 IBN       0.335300
@<TRIPOS>BOND
     1     1     2 1   
     2     1     6 1   
     3     1     7 1   
     4     1     8 1   
     5     2     3 1   
     6     2     4 1   
     7     2     9 1   
     8     3    10 1   
     9     3    11 1   
    10     3    12 1   
    11     4     5 1   
    12     4    13 1   
    13     4    14 1   
    14     5    15 1   
    15     5    16 1   
@<TRIPOS>SUBSTRUCTURE
     1 IBN         1 TEMP              0 ****  ****    0 ROOT
