@<TRIPOS>MOLECULE
IBN
   16    15     1     0     0
SMALL
No Charge or Current Charge


@<TRIPOS>ATOM
      1 C4           1.7850    -0.8020    -0.0120 c3         1 IBN      -0.088100
      2 C2           0.5170     0.0060     0.3490 c3         1 IBN      -0.062700
      3 C3           0.6580     1.4810    -0.1050 c3         1 IBN      -0.088100
      4 C1          -0.7540    -0.6800    -0.2190 c3         1 IBN       0.152800
      5 N           -2.0010    -0.0380     0.2410 n8         1 IBN      -0.996200
      6 H41          2.6760    -0.3480     0.4370 hc         1 IBN       0.031700
      7 H42          1.7070    -1.8310     0.3580 hc         1 IBN       0.031700
      8 H43          1.9290    -0.8380    -1.0990 hc         1 IBN       0.031700
      9 H2           0.4350     0.0030     1.4430 hc         1 IBN       0.060700
     10 H31          0.7110     1.5490    -1.1990 hc         1 IBN       0.031700
     11 H32         -0.1900     2.0850     0.2370 hc         1 IBN       0.031700
     12 H33          1.5700     1.9260     0.3090 hc         1 IBN       0.031700
     13 H11         -0.7280    -0.6530    -1.3170 h1         1 IBN       0.024700
     14 H12         -0.7750    -1.7320     0.0980 h1         1 IBN       0.024700
     15 HN1         -2.0230     0.9270    -0.1080 hn         1 IBN       0.390500
     16 HN2         -2.7980    -0.4840    -0.2290 hn         1 IBN       0.390500
@<TRIPOS>BOND
     1     1     2 1   
     2     1     6 1   
     3     1     7 1   
     4     1     8 1   
     5     2     3 1   
     6     2     4 1   
     7     2     9 1   
     8     3    10 1   
     9     3    11 1   
    10     3    12 1   
    11     4     5 1   
    12     4    13 1   
    13     4    14 1   
    14     5    15 1   
    15     5    16 1   
@<TRIPOS>SUBSTRUCTURE
     1 IBN         1 TEMP              0 ****  ****    0 ROOT
