@<TRIPOS>MOLECULE
IBO
   15    14     1     0     0
SMALL
abcg2


@<TRIPOS>ATOM
      1 CA          -1.0580     0.8060     1.7340 c3         1 IBO      -0.141700
      2 C           -2.3970     0.1740     1.3900 c          1 IBO       0.603100
      3 NA          -2.9740     0.6360     0.2710 nt         1 IBO      -0.611000
      4 O2          -2.8920    -0.7160     2.0700 o          1 IBO      -0.606100
      5 CB1         -0.8650     0.9120     3.2400 c3         1 IBO      -0.081600
      6 CB2          0.0570    -0.0190     1.0830 c3         1 IBO      -0.081600
      7 HAN1        -2.5490     1.3540    -0.2900 hn         1 IBO       0.311500
      8 HAN2        -3.8240     0.2200    -0.0770 hn         1 IBO       0.311500
      9 HA          -1.0250     1.8130     1.3070 hc         1 IBO       0.047700
     10 HB21         1.0310     0.4070     1.3250 hc         1 IBO       0.041533
     11 HB22        -0.0380    -0.0400    -0.0030 hc         1 IBO       0.041533
     12 HB23         0.0430    -1.0490     1.4450 hc         1 IBO       0.041533
     13 HB11        -1.6490     1.5080     3.7070 hc         1 IBO       0.041533
     14 HB12        -0.8600    -0.0700     3.7130 hc         1 IBO       0.041533
     15 HB13         0.0890     1.3930     3.4600 hc         1 IBO       0.041533
@<TRIPOS>BOND
     1     1     2 1   
     2     1     5 1   
     3     1     6 1   
     4     1     9 1   
     5     2     3 1   
     6     2     4 2   
     7     3     7 1   
     8     3     8 1   
     9     5    13 1   
    10     5    14 1   
    11     5    15 1   
    12     6    10 1   
    13     6    11 1   
    14     6    12 1   
@<TRIPOS>SUBSTRUCTURE
     1 IBO         1 TEMP              0 ****  ****    0 ROOT
