@<TRIPOS>MOLECULE
IBO
   15    14     1     0     0
SMALL
No Charge or Current Charge


@<TRIPOS>ATOM
      1 CA          -0.9990     0.7220     1.6430 c3         1 IBO      -0.141700
      2 C           -2.3410     0.0680     1.2530 c          1 IBO       0.603100
      3 NA          -3.1310     0.7780     0.4210 nt         1 IBO      -0.611000
      4 O2          -2.7010    -1.0270     1.6530 o          1 IBO      -0.606100
      5 CB1         -0.9260     0.9840     3.1660 c3         1 IBO      -0.081600
      6 CB2          0.2000    -0.1240     1.1500 c3         1 IBO      -0.081600
      7 HAN1        -2.8320     1.6840     0.0900 hn         1 IBO       0.311500
      8 HAN2        -4.0200     0.3940     0.1360 hn         1 IBO       0.311500
      9 HA          -0.9380     1.6970     1.1420 hc         1 IBO       0.047700
     10 HB21         1.1480     0.3770     1.3800 hc         1 IBO       0.041533
     11 HB22         0.1480    -0.2710     0.0640 hc         1 IBO       0.041533
     12 HB23         0.2070    -1.1100     1.6300 hc         1 IBO       0.041533
     13 HB11        -1.7660     1.6120     3.4900 hc         1 IBO       0.041533
     14 HB12        -0.9650     0.0430     3.7290 hc         1 IBO       0.041533
     15 HB13         0.0050     1.5020     3.4280 hc         1 IBO       0.041533
@<TRIPOS>BOND
     1     1     2 1   
     2     1     5 1   
     3     1     6 1   
     4     1     9 1   
     5     2     3 1   
     6     2     4 2   
     7     3     7 1   
     8     3     8 1   
     9     5    13 1   
    10     5    14 1   
    11     5    15 1   
    12     6    10 1   
    13     6    11 1   
    14     6    12 1   
@<TRIPOS>SUBSTRUCTURE
     1 IBO         1 TEMP              0 ****  ****    0 ROOT
