@<TRIPOS>MOLECULE
IBP
   32    32     1     0     0
SMALL
No Charge or Current Charge


@<TRIPOS>ATOM
      1 C1          -0.3730    -0.3010    -3.5780 c          1 IBP       0.725000
      2 C2          -0.8210    -0.4950     3.0160 c3         1 IBP      -0.015100
      3 C3          -0.0010     0.4030     3.9800 c3         1 IBP      -0.060700
      4 C4          -0.5570     0.3340     5.4200 c3         1 IBP      -0.084100
      5 C5           1.5100     0.0700     3.9510 c3         1 IBP      -0.084100
      6 C6           0.7930     0.0550    -2.6270 c3         1 IBP      -0.173400
      7 C7           1.4160     1.4320    -2.9690 c3         1 IBP      -0.055100
      8 C8           0.3620    -0.0720    -1.1610 ca         1 IBP       0.012700
      9 C9           0.6880    -1.2370    -0.4380 ca         1 IBP      -0.106500
     10 C10          0.3070    -1.3750     0.9080 ca         1 IBP      -0.116500
     11 C11         -0.4080    -0.3500     1.5540 ca         1 IBP      -0.120300
     12 C12         -0.7430     0.8110     0.8340 ca         1 IBP      -0.116500
     13 C13         -0.3620     0.9490    -0.5120 ca         1 IBP      -0.106500
     14 O1          -0.2560    -1.2950    -4.2810 o          1 IBP      -0.725500
     15 O2          -1.3710     0.4050    -3.5780 o          1 IBP      -0.725500
     16 H21         -0.7310    -1.5410     3.3370 hc         1 IBP       0.033700
     17 H22         -1.8840    -0.2430     3.1130 hc         1 IBP       0.033700
     18 H31         -0.1130     1.4410     3.6420 hc         1 IBP       0.046700
     19 H41         -0.0050     1.0120     6.0820 hc         1 IBP       0.027200
     20 H42         -1.6140     0.6280     5.4430 hc         1 IBP       0.027200
     21 H43         -0.4750    -0.6830     5.8230 hc         1 IBP       0.027200
     22 H51          1.6850    -0.9700     4.2500 hc         1 IBP       0.027200
     23 H52          1.9250     0.2150     2.9470 hc         1 IBP       0.027200
     24 H53          2.0620     0.7220     4.6380 hc         1 IBP       0.027200
     25 H61          1.5850    -0.6830    -2.8050 hc         1 IBP       0.035700
     26 H71          0.6780     2.2390    -2.8990 hc         1 IBP       0.015700
     27 H72          2.2430     1.6590    -2.2850 hc         1 IBP       0.015700
     28 H73          1.8120     1.4260    -3.9910 hc         1 IBP       0.015700
     29 H91          1.2420    -2.0400    -0.9180 ha         1 IBP       0.108500
     30 H101         0.5740    -2.2800     1.4490 ha         1 IBP       0.087000
     31 H121        -1.3020     1.6090     1.3170 ha         1 IBP       0.087000
     32 H131        -0.6410     1.8520    -1.0480 ha         1 IBP       0.108500
@<TRIPOS>BOND
     1     1     6 1   
     2     1    14 1   
     3     1    15 1   
     4     2     3 1   
     5     2    11 1   
     6     2    16 1   
     7     2    17 1   
     8     3     4 1   
     9     3     5 1   
    10     3    18 1   
    11     4    19 1   
    12     4    20 1   
    13     4    21 1   
    14     5    22 1   
    15     5    23 1   
    16     5    24 1   
    17     6     7 1   
    18     6     8 1   
    19     6    25 1   
    20     7    26 1   
    21     7    27 1   
    22     7    28 1   
    23     8     9 ar  
    24     8    13 ar  
    25     9    10 ar  
    26     9    29 1   
    27    10    11 ar  
    28    10    30 1   
    29    11    12 ar  
    30    12    13 ar  
    31    12    31 1   
    32    13    32 1   
@<TRIPOS>SUBSTRUCTURE
     1 IBP         1 TEMP              0 ****  ****    0 ROOT
