@<TRIPOS>MOLECULE
IBP
   32    32     1     0     0
SMALL
abcg2


@<TRIPOS>ATOM
      1 C1          -0.4390    -0.1280    -3.6010 c          1 IBP       0.725000
      2 C2          -0.8210    -0.4530     3.0220 c3         1 IBP      -0.015100
      3 C3          -0.0100     0.4750     3.9380 c3         1 IBP      -0.060700
      4 C4          -0.5090     0.3570     5.3730 c3         1 IBP      -0.084100
      5 C5           1.4840     0.1830     3.8570 c3         1 IBP      -0.084100
      6 C6           0.7360    -0.0320    -2.5920 c3         1 IBP      -0.173400
      7 C7           1.5550     1.2370    -2.8450 c3         1 IBP      -0.055100
      8 C8           0.3090    -0.1440    -1.1550 ca         1 IBP       0.012700
      9 C9           0.6530    -1.2550    -0.3940 ca         1 IBP      -0.106500
     10 C10          0.2830    -1.3650     0.9430 ca         1 IBP      -0.116500
     11 C11         -0.4430    -0.3600     1.5700 ca         1 IBP      -0.120300
     12 C12         -0.7910     0.7570     0.8080 ca         1 IBP      -0.116500
     13 C13         -0.4270     0.8610    -0.5250 ca         1 IBP      -0.106500
     14 O1          -0.1120    -0.0900    -4.8050 o          1 IBP      -0.725500
     15 O2          -1.5930    -0.2400    -3.1500 o          1 IBP      -0.725500
     16 H21         -0.6970    -1.4850     3.3670 hc         1 IBP       0.033700
     17 H22         -1.8830    -0.2140     3.1390 hc         1 IBP       0.033700
     18 H31         -0.1770     1.5060     3.6020 hc         1 IBP       0.046700
     19 H41          0.0220     1.0410     6.0370 hc         1 IBP       0.027200
     20 H42         -1.5750     0.5840     5.4480 hc         1 IBP       0.027200
     21 H43         -0.3590    -0.6560     5.7540 hc         1 IBP       0.027200
     22 H51          1.6940    -0.8490     4.1480 hc         1 IBP       0.027200
     23 H52          1.8720     0.3280     2.8490 hc         1 IBP       0.027200
     24 H53          2.0460     0.8360     4.5260 hc         1 IBP       0.027200
     25 H61          1.3960    -0.8820    -2.8030 hc         1 IBP       0.035700
     26 H71          0.9510     2.1400    -2.7330 hc         1 IBP       0.015700
     27 H72          2.3910     1.3110    -2.1470 hc         1 IBP       0.015700
     28 H73          1.9600     1.2370    -3.8560 hc         1 IBP       0.015700
     29 H91          1.2220    -2.0570    -0.8530 ha         1 IBP       0.108500
     30 H101         0.5710    -2.2470     1.5040 ha         1 IBP       0.087000
     31 H121        -1.3610     1.5580     1.2670 ha         1 IBP       0.087000
     32 H131        -0.7240     1.7430    -1.0800 ha         1 IBP       0.108500
@<TRIPOS>BOND
     1     1     6 1   
     2     1    14 1   
     3     1    15 1   
     4     2     3 1   
     5     2    11 1   
     6     2    16 1   
     7     2    17 1   
     8     3     4 1   
     9     3     5 1   
    10     3    18 1   
    11     4    19 1   
    12     4    20 1   
    13     4    21 1   
    14     5    22 1   
    15     5    23 1   
    16     5    24 1   
    17     6     7 1   
    18     6     8 1   
    19     6    25 1   
    20     7    26 1   
    21     7    27 1   
    22     7    28 1   
    23     8     9 ar  
    24     8    13 ar  
    25     9    10 ar  
    26     9    29 1   
    27    10    11 ar  
    28    10    30 1   
    29    11    12 ar  
    30    12    13 ar  
    31    12    31 1   
    32    13    32 1   
@<TRIPOS>SUBSTRUCTURE
     1 IBP         1 TEMP              0 ****  ****    0 ROOT
