@<TRIPOS>MOLECULE
IBQ
   68    72     1     0     0
SMALL
No Charge or Current Charge


@<TRIPOS>ATOM
      1 I01         -6.3640    -1.0170     0.1510 i          1 IBQ      -0.312000
      2 O02          1.2890    -0.2380     1.9780 oh         1 IBQ      -0.668000
      3 N04          1.8160    -4.3100     0.3460 n3         1 IBQ      -0.717600
      4 N05         -1.1780     1.0340    -2.8690 nb         1 IBQ      -0.770000
      5 C06          1.9990    -0.3710     0.7360 c3         1 IBQ       0.249300
      6 C07          1.5450     0.8550    -0.1550 c3         1 IBQ       0.007900
      7 C09          3.5530    -0.3110     0.9990 ca         1 IBQ      -0.095300
      8 C10          0.1620     0.7420    -0.8530 ca         1 IBQ      -0.124300
      9 C12          1.7130     2.2000     0.5790 ca         1 IBQ      -0.085300
     10 C13          4.5570    -0.5070    -0.0180 ca         1 IBQ      -0.019000
     11 C14          4.0100    -0.0470     2.3220 ca         1 IBQ      -0.100000
     12 C15         -0.9880     0.2940    -0.1660 ca         1 IBQ      -0.038000
     13 C16          5.9360    -0.4440     0.3350 ca         1 IBQ      -0.042000
     14 C17          0.0040     1.1130    -2.2150 ca         1 IBQ       0.611300
     15 C19          2.9580     2.8650     0.5280 ca         1 IBQ      -0.103000
     16 C18          0.6590     2.7930     1.3120 ca         1 IBQ      -0.103000
     17 C20          5.3700     0.0150     2.6420 ca         1 IBQ      -0.107000
     18 C21          4.2570    -0.7610    -1.3840 ca         1 IBQ      -0.106000
     19 C22         -2.2100     0.2150    -0.8510 ca         1 IBQ      -0.123000
     20 C23          6.3320    -0.1860     1.6550 ca         1 IBQ      -0.097000
     21 C24         -2.2670     0.5930    -2.2120 ca         1 IBQ       0.329000
     22 C26          2.6650    -5.3950     0.8860 c3         1 IBQ       0.151100
     23 C25          0.3730    -4.6230     0.4840 c3         1 IBQ       0.151100
     24 C27          6.9460    -0.6370    -0.6280 ca         1 IBQ      -0.100000
     25 C29          3.1480     4.0860     1.1950 ca         1 IBQ      -0.111000
     26 C28          0.8510     4.0160     1.9780 ca         1 IBQ      -0.111000
     27 C30          5.2710    -0.9510    -2.3380 ca         1 IBQ      -0.106000
     28 C31          2.0950     4.6630     1.9210 ca         1 IBQ      -0.107000
     29 C32          6.6160    -0.8920    -1.9630 ca         1 IBQ      -0.107000
     30 C33         -3.3670    -0.2390    -0.1840 ca         1 IBQ      -0.040000
     31 C34         -3.5000     0.5060    -2.8850 ca         1 IBQ      -0.098000
     32 C35         -4.5870    -0.3190    -0.8720 ca         1 IBQ       0.180000
     33 C36         -4.6560     0.0530    -2.2220 ca         1 IBQ      -0.068000
     34 C37          1.0090     1.9680    -4.2950 c3         1 IBQ       0.158900
     35 H02          1.3120     0.7170     2.2010 ho         1 IBQ       0.454000
     36 H371         1.9880     2.3020    -4.6620 h1         1 IBQ       0.049033
     37 H372         0.6810     1.1280    -4.9220 h1         1 IBQ       0.049033
     38 H373         0.2990     2.7960    -4.4200 h1         1 IBQ       0.049033
     39 H111         1.9660    -2.9330     1.9630 h1         1 IBQ       0.040700
     40 H112         3.2920    -2.8740     0.8020 h1         1 IBQ       0.040700
     41 H251        -0.2460    -3.9090    -0.0740 h1         1 IBQ       0.029367
     42 H252         0.1540    -5.6240     0.0880 h1         1 IBQ       0.029367
     43 H253         0.0660    -4.5990     1.5390 h1         1 IBQ       0.029367
     44 H261         2.5230    -5.5010     1.9700 h1         1 IBQ       0.029367
     45 H262         2.4200    -6.3550     0.4110 h1         1 IBQ       0.029367
     46 H263         3.7270    -5.1880     0.6970 h1         1 IBQ       0.029367
     47 H07          2.2800     0.8960    -0.9570 hc         1 IBQ       0.088700
     48 H081         0.4640    -1.8560     0.3060 hc         1 IBQ       0.058700
     49 H082         1.7100    -1.8560    -0.8920 hc         1 IBQ       0.058700
     50 H14          3.3200     0.1170     3.1440 ha         1 IBQ       0.118000
     51 H15         -0.9460     0.0130     0.8820 ha         1 IBQ       0.141000
     52 H18         -0.3150     2.3170     1.3770 ha         1 IBQ       0.118500
     53 H19          3.7870     2.4320    -0.0270 ha         1 IBQ       0.118500
     54 H21          3.2470    -0.8070    -1.7580 ha         1 IBQ       0.119000
     55 H20          5.6790     0.2180     3.6660 ha         1 IBQ       0.115000
     56 H23          7.3860    -0.1380     1.9160 ha         1 IBQ       0.114000
     57 H27          7.9940    -0.5880    -0.3410 ha         1 IBQ       0.112000
     58 H28          0.0330     4.4630     2.5390 ha         1 IBQ       0.113500
     59 H29          4.1140     4.5850     1.1490 ha         1 IBQ       0.113500
     60 H30          5.0070    -1.1420    -3.3760 ha         1 IBQ       0.114000
     61 H33         -3.3240    -0.5300     0.8620 ha         1 IBQ       0.129000
     62 H34         -3.5590     0.7940    -3.9310 ha         1 IBQ       0.133000
     63 H32          7.3990    -1.0390    -2.7030 ha         1 IBQ       0.115000
     64 H31          2.2420     5.6100     2.4370 ha         1 IBQ       0.113000
     65 H36         -5.6020    -0.0090    -2.7540 ha         1 IBQ       0.129000
     66 O03          1.1020     1.5730    -2.9120 os         1 IBQ      -0.459300
     67 C08          1.5470    -1.7670     0.1830 c3         1 IBQ      -0.063400
     68 C11          2.2030    -2.9800     0.8910 c3         1 IBQ       0.166800
@<TRIPOS>BOND
     1     1    32 1   
     2     2     5 1   
     3     2    35 1   
     4     3    22 1   
     5     3    23 1   
     6     3    68 1   
     7     4    14 ar  
     8     4    21 ar  
     9     5     6 1   
    10     5     7 1   
    11     5    67 1   
    12     6     8 1   
    13     6     9 1   
    14     6    47 1   
    15     7    10 ar  
    16     7    11 ar  
    17     8    12 ar  
    18     8    14 ar  
    19     9    15 ar  
    20     9    16 ar  
    21    10    13 ar  
    22    10    18 ar  
    23    11    17 ar  
    24    11    50 1   
    25    12    19 ar  
    26    12    51 1   
    27    13    20 ar  
    28    13    24 ar  
    29    14    66 1   
    30    15    25 ar  
    31    15    53 1   
    32    16    26 ar  
    33    16    52 1   
    34    17    20 ar  
    35    17    55 1   
    36    18    27 ar  
    37    18    54 1   
    38    19    21 ar  
    39    19    30 ar  
    40    20    56 1   
    41    21    31 ar  
    42    22    44 1   
    43    22    45 1   
    44    22    46 1   
    45    23    41 1   
    46    23    42 1   
    47    23    43 1   
    48    24    29 ar  
    49    24    57 1   
    50    25    28 ar  
    51    25    59 1   
    52    26    28 ar  
    53    26    58 1   
    54    27    29 ar  
    55    27    60 1   
    56    28    64 1   
    57    29    63 1   
    58    30    32 ar  
    59    30    61 1   
    60    31    33 ar  
    61    31    62 1   
    62    32    33 ar  
    63    33    65 1   
    64    34    36 1   
    65    34    37 1   
    66    34    38 1   
    67    34    66 1   
    68    39    68 1   
    69    40    68 1   
    70    48    67 1   
    71    49    67 1   
    72    67    68 1   
@<TRIPOS>SUBSTRUCTURE
     1 IBQ         1 TEMP              0 ****  ****    0 ROOT
