@<TRIPOS>MOLECULE
IBQ
   68    72     1     0     0
SMALL
bcc


@<TRIPOS>ATOM
      1 I01         -6.3060    -1.0000    -0.0130 i          1 IBQ      -0.174900
      2 O02          1.1990    -0.3350     1.9330 oh         1 IBQ      -0.605800
      3 N04          1.7620    -4.2680     0.3650 n3         1 IBQ      -0.717600
      4 N05         -1.1460     1.1210    -2.8180 nb         1 IBQ      -0.770000
      5 C06          1.9420    -0.4400     0.7390 c3         1 IBQ       0.226100
      6 C07          1.5530     0.7300    -0.2300 c3         1 IBQ       0.007900
      7 C09          3.4500    -0.3480     1.0400 ca         1 IBQ      -0.095300
      8 C10          0.1740     0.6430    -0.8420 ca         1 IBQ      -0.189600
      9 C12          1.7690     2.0790     0.4330 ca         1 IBQ      -0.085300
     10 C13          4.4680    -0.4730     0.0350 ca         1 IBQ      -0.019000
     11 C14          3.8450    -0.1290     2.3360 ca         1 IBQ      -0.118000
     12 C15         -0.9440     0.1940    -0.2070 ca         1 IBQ      -0.056000
     13 C16          5.8330    -0.3110     0.4130 ca         1 IBQ      -0.042000
     14 C17         -0.0150     1.1200    -2.1850 ca         1 IBQ       0.676600
     15 C19          2.9860     2.7390     0.2660 ca         1 IBQ      -0.121000
     16 C18          0.8000     2.6740     1.2400 ca         1 IBQ      -0.121000
     17 C20          5.1950     0.0220     2.7050 ca         1 IBQ      -0.125000
     18 C21          4.2200    -0.7630    -1.3330 ca         1 IBQ      -0.124000
     19 C22         -2.2000     0.1760    -0.8650 ca         1 IBQ      -0.188300
     20 C23          6.1730    -0.0550     1.7610 ca         1 IBQ      -0.115000
     21 C24         -2.2510     0.6530    -2.1900 ca         1 IBQ       0.459600
     22 C26          2.6670    -5.3350     0.7360 c3         1 IBQ       0.151100
     23 C25          0.4130    -4.5860     0.7840 c3         1 IBQ       0.151100
     24 C27          6.8590    -0.4190    -0.5560 ca         1 IBQ      -0.118000
     25 C29          3.2370     3.9470     0.8970 ca         1 IBQ      -0.129000
     26 C28          1.0500     3.8820     1.8790 ca         1 IBQ      -0.129000
     27 C30          5.2330    -0.8680    -2.2490 ca         1 IBQ      -0.124000
     28 C31          2.2700     4.5220     1.7120 ca         1 IBQ      -0.125000
     29 C32          6.5730    -0.6880    -1.8640 ca         1 IBQ      -0.125000
     30 C33         -3.3690    -0.2990    -0.2390 ca         1 IBQ      -0.058000
     31 C34         -3.4850     0.6440    -2.8700 ca         1 IBQ      -0.181300
     32 C35         -4.5510    -0.2930    -0.9320 ca         1 IBQ       0.042900
     33 C36         -4.6190     0.1800    -2.2550 ca         1 IBQ      -0.086000
     34 C37          0.9590     2.0580    -4.1220 c3         1 IBQ       0.135700
     35 H02          1.3170     0.5460     2.3080 ho         1 IBQ       0.415000
     36 H371         1.9550     2.3870    -4.4070 h1         1 IBQ       0.049033
     37 H372         0.6300     1.2670    -4.7960 h1         1 IBQ       0.049033
     38 H373         0.2630     2.8940    -4.1980 h1         1 IBQ       0.049033
     39 H111         2.0790    -2.9070     1.9660 h1         1 IBQ       0.040700
     40 H112         3.3010    -2.9380     0.7080 h1         1 IBQ       0.040700
     41 H251        -0.2920    -3.8250     0.4510 h1         1 IBQ       0.029367
     42 H252         0.1000    -5.5310     0.3390 h1         1 IBQ       0.029367
     43 H253         0.3120    -4.6800     1.8770 h1         1 IBQ       0.029367
     44 H261         2.7430    -5.4850     1.8250 h1         1 IBQ       0.029367
     45 H262         2.3340    -6.2760     0.2970 h1         1 IBQ       0.029367
     46 H263         3.6700    -5.1290     0.3580 h1         1 IBQ       0.029367
     47 H07          2.2610     0.6930    -1.0550 hc         1 IBQ       0.088700
     48 H081         0.4710    -1.9070     0.2430 hc         1 IBQ       0.058700
     49 H082         1.7770    -1.8810    -0.8990 hc         1 IBQ       0.058700
     50 H14          3.1120    -0.0740     3.1260 ha         1 IBQ       0.136000
     51 H15         -0.8930    -0.1610     0.8140 ha         1 IBQ       0.159000
     52 H18         -0.1730     2.2130     1.3620 ha         1 IBQ       0.136500
     53 H19          3.7450     2.3020    -0.3710 ha         1 IBQ       0.136500
     54 H21          3.2160    -0.9250    -1.6900 ha         1 IBQ       0.137000
     55 H20          5.4420     0.2020     3.7430 ha         1 IBQ       0.133000
     56 H23          7.2160     0.0680     2.0270 ha         1 IBQ       0.132000
     57 H27          7.8850    -0.2850    -0.2360 ha         1 IBQ       0.130000
     58 H28          0.2850     4.3250     2.5020 ha         1 IBQ       0.131500
     59 H29          4.1880     4.4410     0.7500 ha         1 IBQ       0.131500
     60 H30          4.9940    -1.0930    -3.2800 ha         1 IBQ       0.132000
     61 H33         -3.3090    -0.6610     0.7790 ha         1 IBQ       0.147000
     62 H34         -3.5270     1.0110    -3.8880 ha         1 IBQ       0.151000
     63 H32          7.3650    -0.7690    -2.5960 ha         1 IBQ       0.133000
     64 H31          2.4630     5.4650     2.2050 ha         1 IBQ       0.131000
     65 H36         -5.5570     0.1830    -2.7930 ha         1 IBQ       0.147000
     66 O03          1.0730     1.5910    -2.7850 os         1 IBQ      -0.436100
     67 C08          1.5550    -1.8170     0.1670 c3         1 IBQ      -0.063400
     68 C11          2.2230    -2.9890     0.8760 c3         1 IBQ       0.166800
@<TRIPOS>BOND
     1     1    32 1   
     2     2     5 1   
     3     2    35 1   
     4     3    22 1   
     5     3    23 1   
     6     3    68 1   
     7     4    14 ar  
     8     4    21 ar  
     9     5     6 1   
    10     5     7 1   
    11     5    67 1   
    12     6     8 1   
    13     6     9 1   
    14     6    47 1   
    15     7    10 ar  
    16     7    11 ar  
    17     8    12 ar  
    18     8    14 ar  
    19     9    15 ar  
    20     9    16 ar  
    21    10    13 ar  
    22    10    18 ar  
    23    11    17 ar  
    24    11    50 1   
    25    12    19 ar  
    26    12    51 1   
    27    13    20 ar  
    28    13    24 ar  
    29    14    66 1   
    30    15    25 ar  
    31    15    53 1   
    32    16    26 ar  
    33    16    52 1   
    34    17    20 ar  
    35    17    55 1   
    36    18    27 ar  
    37    18    54 1   
    38    19    21 ar  
    39    19    30 ar  
    40    20    56 1   
    41    21    31 ar  
    42    22    44 1   
    43    22    45 1   
    44    22    46 1   
    45    23    41 1   
    46    23    42 1   
    47    23    43 1   
    48    24    29 ar  
    49    24    57 1   
    50    25    28 ar  
    51    25    59 1   
    52    26    28 ar  
    53    26    58 1   
    54    27    29 ar  
    55    27    60 1   
    56    28    64 1   
    57    29    63 1   
    58    30    32 ar  
    59    30    61 1   
    60    31    33 ar  
    61    31    62 1   
    62    32    33 ar  
    63    33    65 1   
    64    34    36 1   
    65    34    37 1   
    66    34    38 1   
    67    34    66 1   
    68    39    68 1   
    69    40    68 1   
    70    48    67 1   
    71    49    67 1   
    72    67    68 1   
@<TRIPOS>SUBSTRUCTURE
     1 IBQ         1 TEMP              0 ****  ****    0 ROOT
