@<TRIPOS>MOLECULE
IBR
   28    28     1     0     0
SMALL
No Charge or Current Charge


@<TRIPOS>ATOM
      1 C           -2.3800     0.0370     3.3450 c          1 IBR       0.588500
      2 O           -2.9370    -0.4050     4.3460 o          1 IBR      -0.518100
      3 C1          -0.2460     0.7000     2.0590 ca         1 IBR      -0.086300
      4 C2          -0.8740     0.1550     3.2150 ca         1 IBR      -0.128600
      5 C3          -0.0600    -0.3030     4.2800 ca         1 IBR      -0.126000
      6 C4           1.3380    -0.2320     4.2100 ca         1 IBR       0.288000
      7 C5           1.9470     0.2970     3.0680 ca         1 IBR      -0.155000
      8 C6           1.1620     0.7580     2.0000 ca         1 IBR      -0.072000
      9 N            2.1080    -0.6800     5.2510 nv         1 IBR      -1.070000
     10 C7          -1.3940     0.0780    -0.1040 c          1 IBR       0.590100
     11 O11         -0.5190    -0.0010    -1.1550 os         1 IBR      -0.445100
     12 O12         -2.3030    -0.7160     0.1000 o          1 IBR      -0.471000
     13 C1E          0.4340    -0.9760    -3.1480 c3         1 IBR       0.078600
     14 C2E         -0.6980    -1.0670    -2.1080 c3         1 IBR       0.165600
     15 Br           2.2470    -1.1430    -2.3200 br         1 IBR      -0.252000
     16 H           -2.9920     0.3740     2.4830 h4         1 IBR      -0.015800
     17 H3          -0.5190    -0.7220     5.1720 ha         1 IBR       0.133000
     18 H5           3.0310     0.3520     3.0010 ha         1 IBR       0.115000
     19 H6           1.6560     1.1620     1.1180 ha         1 IBR       0.113000
     20 HN1          3.1120    -0.5060     5.2530 hn         1 IBR       0.452000
     21 HN2          1.6740    -0.9380     6.1360 hn         1 IBR       0.452000
     22 H21         -1.9460     1.7340     1.1650 hc         1 IBR       0.080200
     23 H22         -0.4130     1.9420     0.3040 hc         1 IBR       0.080200
     24 HE11         0.3440    -1.7850    -3.8840 h1         1 IBR       0.083200
     25 HE12         0.4040    -0.0090    -3.6660 h1         1 IBR       0.083200
     26 HE21        -0.6580    -2.0480    -1.6160 h1         1 IBR       0.062200
     27 HE22        -1.6670    -0.9780    -2.6170 h1         1 IBR       0.062200
     28 C8          -1.0320     1.2210     0.8500 c3         1 IBR      -0.089100
@<TRIPOS>BOND
     1     1     2 2   
     2     1     4 1   
     3     1    16 1   
     4     3     4 ar  
     5     3     8 ar  
     6     3    28 1   
     7     4     5 ar  
     8     5     6 ar  
     9     5    17 1   
    10     6     7 ar  
    11     6     9 1   
    12     7     8 ar  
    13     7    18 1   
    14     8    19 1   
    15     9    20 1   
    16     9    21 1   
    17    10    11 1   
    18    10    12 2   
    19    10    28 1   
    20    11    14 1   
    21    13    14 1   
    22    13    15 1   
    23    13    24 1   
    24    13    25 1   
    25    14    26 1   
    26    14    27 1   
    27    22    28 1   
    28    23    28 1   
@<TRIPOS>SUBSTRUCTURE
     1 IBR         1 TEMP              0 ****  ****    0 ROOT
