@<TRIPOS>MOLECULE
IBR
   28    28     1     0     0
SMALL
abcg2


@<TRIPOS>ATOM
      1 C           -2.0590     0.1780     2.7150 c          1 IBR       0.588500
      2 O           -2.9470    -0.1890     3.4500 o          1 IBR      -0.518100
      3 C1           0.3540     0.4740     2.1280 ca         1 IBR      -0.086300
      4 C2          -0.6300     0.1780     3.0800 ca         1 IBR      -0.128600
      5 C3          -0.2870    -0.1250     4.3950 ca         1 IBR      -0.126000
      6 C4           1.0430    -0.1410     4.8120 ca         1 IBR       0.288000
      7 C5           2.0250     0.1540     3.8570 ca         1 IBR      -0.155000
      8 C6           1.6780     0.4510     2.5520 ca         1 IBR      -0.072000
      9 N            1.3860    -0.4850     6.0990 nv         1 IBR      -1.070000
     10 C7          -0.3970    -0.4030    -0.1080 c          1 IBR       0.590100
     11 O11         -0.4250    -0.1240    -1.4050 os         1 IBR      -0.445100
     12 O12         -0.7110    -1.4690     0.3540 o          1 IBR      -0.471000
     13 C1E         -0.8710    -0.5840    -3.6910 c3         1 IBR       0.078600
     14 C2E         -0.8520    -1.1500    -2.2990 c3         1 IBR       0.165600
     15 BR           0.9200    -0.0380    -4.2800 br         1 IBR      -0.252000
     16 H           -2.3050     0.5570     1.7110 h4         1 IBR      -0.015800
     17 H3          -1.0720    -0.3440     5.1090 ha         1 IBR       0.133000
     18 H5           3.0700     0.1520     4.1440 ha         1 IBR       0.115000
     19 H6           2.4670     0.6720     1.8420 ha         1 IBR       0.113000
     20 HN1          2.2800    -0.1490     6.4210 hn         1 IBR       0.452000
     21 HN2          0.6670    -0.3570     6.7940 hn         1 IBR       0.452000
     22 H21         -0.7130     1.5730     0.5890 hc         1 IBR       0.080200
     23 H22          0.9420     1.2150     0.2150 hc         1 IBR       0.080200
     24 HE11        -1.2200    -1.3450    -4.3860 h1         1 IBR       0.083200
     25 HE12        -1.5140     0.2910    -3.7680 h1         1 IBR       0.083200
     26 HE21        -0.1940    -2.0180    -2.2320 h1         1 IBR       0.062200
     27 HE22        -1.8680    -1.4720    -2.0550 h1         1 IBR       0.062200
     28 C8           0.0530     0.7970     0.6920 c3         1 IBR      -0.089100
@<TRIPOS>BOND
     1     1     2 2   
     2     1     4 1   
     3     1    16 1   
     4     3     4 ar  
     5     3     8 ar  
     6     3    28 1   
     7     4     5 ar  
     8     5     6 ar  
     9     5    17 1   
    10     6     7 ar  
    11     6     9 1   
    12     7     8 ar  
    13     7    18 1   
    14     8    19 1   
    15     9    20 1   
    16     9    21 1   
    17    10    11 1   
    18    10    12 2   
    19    10    28 1   
    20    11    14 1   
    21    13    14 1   
    22    13    15 1   
    23    13    24 1   
    24    13    25 1   
    25    14    26 1   
    26    14    27 1   
    27    22    28 1   
    28    23    28 1   
@<TRIPOS>SUBSTRUCTURE
     1 IBR         1 TEMP              0 ****  ****    0 ROOT
