@<TRIPOS>MOLECULE
IBU
   17    16     1     0     0
SMALL
No Charge or Current Charge


@<TRIPOS>ATOM
      1 C            1.8200    -0.0620    -0.0180 c          1 IBU       0.823100
      2 OA2          2.0360    -1.1620    -0.5000 o          1 IBU      -0.726000
      3 OA1          0.5410     0.3340     0.2410 os         1 IBU      -0.546100
      4 CB          -0.5420    -0.5670    -0.0660 c3         1 IBU       0.207600
      5 CG          -1.8810     0.1170     0.3140 c3         1 IBU      -0.072700
      6 CD1         -2.1530     1.3940    -0.5180 c3         1 IBU      -0.078100
      7 CD2         -3.0600    -0.8770     0.2030 c3         1 IBU      -0.078100
      8 H1B         -0.5520    -0.8190    -1.1350 h1         1 IBU       0.011200
      9 H2B         -0.4370    -1.4970     0.5090 h1         1 IBU       0.011200
     10 HG          -1.8120     0.4160     1.3670 hc         1 IBU       0.044700
     11 H1D1        -1.3570     2.1340    -0.3750 hc         1 IBU       0.021200
     12 H2D1        -2.2130     1.1560    -1.5870 hc         1 IBU       0.021200
     13 H3D1        -3.1000     1.8580    -0.2160 hc         1 IBU       0.021200
     14 H1D2        -3.9970    -0.4050     0.5250 hc         1 IBU       0.021200
     15 H2D2        -3.1850    -1.2200    -0.8310 hc         1 IBU       0.021200
     16 H3D2        -2.8880    -1.7540     0.8380 hc         1 IBU       0.021200
     17 O3           2.7030     0.7300     0.2570 o          1 IBU      -0.726000
@<TRIPOS>BOND
     1     1     2 1   
     2     1     3 1   
     3     1    17 1   
     4     3     4 1   
     5     4     5 1   
     6     4     8 1   
     7     4     9 1   
     8     5     6 1   
     9     5     7 1   
    10     5    10 1   
    11     6    11 1   
    12     6    12 1   
    13     6    13 1   
    14     7    14 1   
    15     7    15 1   
    16     7    16 1   
@<TRIPOS>SUBSTRUCTURE
     1 IBU         1 TEMP              0 ****  ****    0 ROOT
