@<TRIPOS>MOLECULE
IBU
   17    16     1     0     0
SMALL
abcg2


@<TRIPOS>ATOM
      1 C            1.7910    -0.0650    -0.0690 c          1 IBU       0.823100
      2 OA2          1.9350    -1.1810    -0.5840 o          1 IBU      -0.726000
      3 OA1          0.5030     0.3350     0.2550 os         1 IBU      -0.546100
      4 CB          -0.5600    -0.5530    -0.0070 c3         1 IBU       0.207600
      5 CG          -1.8760     0.1280     0.3450 c3         1 IBU      -0.072700
      6 CD1         -2.1150     1.3780    -0.4950 c3         1 IBU      -0.078100
      7 CD2         -3.0190    -0.8690     0.1770 c3         1 IBU      -0.078100
      8 H1B         -0.5820    -0.8520    -1.0630 h1         1 IBU       0.011200
      9 H2B         -0.4590    -1.4720     0.5830 h1         1 IBU       0.011200
     10 HG          -1.8360     0.4210     1.4000 hc         1 IBU       0.044700
     11 H1D1        -1.3260     2.1170    -0.3600 hc         1 IBU       0.021200
     12 H2D1        -2.1600     1.1280    -1.5590 hc         1 IBU       0.021200
     13 H3D1        -3.0610     1.8520    -0.2290 hc         1 IBU       0.021200
     14 H1D2        -3.9730    -0.4230     0.4630 hc         1 IBU       0.021200
     15 H2D2        -3.1080    -1.1980    -0.8610 hc         1 IBU       0.021200
     16 H3D2        -2.8720    -1.7560     0.7950 hc         1 IBU       0.021200
     17 O3           2.6410     0.7870     0.2170 o          1 IBU      -0.726000
@<TRIPOS>BOND
     1     1     2 1   
     2     1     3 1   
     3     1    17 1   
     4     3     4 1   
     5     4     5 1   
     6     4     8 1   
     7     4     9 1   
     8     5     6 1   
     9     5     7 1   
    10     5    10 1   
    11     6    11 1   
    12     6    12 1   
    13     6    13 1   
    14     7    14 1   
    15     7    15 1   
    16     7    16 1   
@<TRIPOS>SUBSTRUCTURE
     1 IBU         1 TEMP              0 ****  ****    0 ROOT
