@<TRIPOS>MOLECULE
IBV
   52    55     1     0     0
SMALL
abcg2


@<TRIPOS>ATOM
      1 C11        108.7030   104.5340    59.0980 ca         1 IBV       0.328000
      2 C13        106.2200   105.5040    62.4230 cx         1 IBV      -0.205000
      3 C15        106.4240   106.8030    63.1700 cx         1 IBV      -0.103900
      4 C16        105.2310   106.6420    62.2850 cx         1 IBV      -0.103900
      5 C22        108.2340   103.5110    59.9400 ca         1 IBV      -0.151000
      6 C23        109.6940   103.1240    57.2980 ca         1 IBV       0.218000
      7 C24        107.4390   103.8150    61.0200 ca         1 IBV      -0.094000
      8 C25        110.1600   100.9310    55.8140 ca         1 IBV       0.078900
      9 C27        108.7710   102.0760    57.2090 ca         1 IBV       0.054900
     10 C28        110.8610   102.9640    56.5380 ca         1 IBV       0.054900
     11 C1         108.1860   110.6990    59.1690 cc         1 IBV       0.171500
     12 C2         108.6330   109.4710    58.6150 cc         1 IBV      -0.007400
     13 C3         108.3530   105.8530    59.4620 ca         1 IBV       0.228500
     14 N4         108.6130   111.7250    58.4200 nd         1 IBV      -0.496800
     15 N5         107.5740   106.1210    60.5170 nb         1 IBV      -0.649000
     16 C7         108.8520   107.0420    58.7070 c          1 IBV       0.521600
     17 C8         109.3720   109.8270    57.5000 cd         1 IBV      -0.188000
     18 N9         109.3200   111.1810    57.4320 na         1 IBV       0.137800
     19 N10        108.3450   108.2170    59.1310 ns         1 IBV      -0.339100
     20 C12        107.1000   105.1510    61.2860 ca         1 IBV       0.356300
     21 N14        109.5130   104.2960    58.0070 nu         1 IBV      -0.978000
     22 N17        107.2300   111.9510    61.0600 n          1 IBV      -0.392800
     23 O18        106.6080   109.8140    60.6450 o          1 IBV      -0.636100
     24 O19        109.6660   106.9580    57.7750 o          1 IBV      -0.653100
     25 N20        109.0090   100.9870    56.4780 nb         1 IBV      -0.147000
     26 N21        111.0940   101.8840    55.8020 nb         1 IBV      -0.147000
     27 C29        106.2310   112.0590    62.1160 c3         1 IBV       0.091800
     28 C30        108.1750   113.0600    60.9900 c3         1 IBV       0.091800
     29 H33        105.8970   104.6550    63.0110 hc         1 IBV       0.080700
     30 H35        106.2790   106.7860    64.2420 hc         1 IBV       0.079700
     31 H36        107.2250   107.4390    62.8180 hc         1 IBV       0.079700
     32 H38        105.2360   107.1660    61.3390 hc         1 IBV       0.079700
     33 H37        104.2580   106.5130    62.7420 hc         1 IBV       0.079700
     34 H39        108.5160   102.4850    59.7570 ha         1 IBV       0.131000
     35 H40        107.0830   103.0270    61.6720 ha         1 IBV       0.127000
     36 H41        110.3530   100.0410    55.2260 h5         1 IBV       0.054100
     37 H44        110.5460   112.7770    56.8790 h1         1 IBV       0.060367
     38 H42        110.5170   111.3980    55.7560 h1         1 IBV       0.060367
     39 H43        109.1330   112.5130    55.8290 h1         1 IBV       0.060367
     40 H45        107.8170   102.1210    57.7170 h4         1 IBV       0.031100
     41 H46        111.6120   103.7480    56.5350 h4         1 IBV       0.031100
     42 H31        109.9050   109.2370    56.7790 h4         1 IBV       0.183000
     43 H32        107.6770   108.1920    59.8950 hn         1 IBV       0.386500
     44 H34        109.9440   105.1400    57.6340 hn         1 IBV       0.546000
     45 H47        105.8860   113.0920    62.1640 h1         1 IBV       0.045367
     46 H48        105.3930   111.4030    61.9020 h1         1 IBV       0.045367
     47 H49        106.6560   111.7870    63.0870 h1         1 IBV       0.045367
     48 H50        108.4280   113.3570    62.0090 h1         1 IBV       0.045367
     49 H52        109.0790   112.7650    60.4720 h1         1 IBV       0.045367
     50 H51        107.7360   113.9180    60.4760 h1         1 IBV       0.045367
     51 C6         107.2970   110.8080    60.3490 c          1 IBV       0.539600
     52 C26        109.9150   112.0240    56.4100 c3         1 IBV       0.075900
@<TRIPOS>BOND
     1     1     5 ar  
     2     1    13 ar  
     3     1    21 1   
     4     2     3 1   
     5     2     4 1   
     6     2    20 1   
     7     2    29 1   
     8     3     4 1   
     9     3    30 1   
    10     3    31 1   
    11     4    32 1   
    12     4    33 1   
    13     5     7 ar  
    14     5    34 1   
    15     6     9 ar  
    16     6    10 ar  
    17     6    21 1   
    18     7    20 ar  
    19     7    35 1   
    20     8    25 ar  
    21     8    26 ar  
    22     8    36 1   
    23     9    25 ar  
    24     9    40 1   
    25    10    26 ar  
    26    10    41 1   
    27    11    12 1   
    28    11    14 2   
    29    11    51 1   
    30    12    17 2   
    31    12    19 1   
    32    13    15 ar  
    33    13    16 1   
    34    14    18 1   
    35    15    20 ar  
    36    16    19 1   
    37    16    24 2   
    38    17    18 1   
    39    17    42 1   
    40    18    52 1   
    41    19    43 1   
    42    21    44 1   
    43    22    27 1   
    44    22    28 1   
    45    22    51 1   
    46    23    51 2   
    47    27    45 1   
    48    27    46 1   
    49    27    47 1   
    50    28    48 1   
    51    28    49 1   
    52    28    50 1   
    53    37    52 1   
    54    38    52 1   
    55    39    52 1   
@<TRIPOS>SUBSTRUCTURE
     1 IBV         1 TEMP              0 ****  ****    0 ROOT
