@<TRIPOS>MOLECULE
IBV
   52    55     1     0     0
SMALL
No Charge or Current Charge


@<TRIPOS>ATOM
      1 C11        108.6860   104.4860    59.1090 ca         1 IBV       0.328000
      2 C13        106.3420   105.5120    62.5700 cx         1 IBV      -0.205000
      3 C15        106.6190   106.7540    63.3960 cx         1 IBV      -0.103900
      4 C16        105.3660   106.6730    62.5570 cx         1 IBV      -0.103900
      5 C22        108.1890   103.4550    59.9290 ca         1 IBV      -0.151000
      6 C23        109.5900   103.0250    57.1520 ca         1 IBV       0.218000
      7 C24        107.4210   103.7820    61.0600 ca         1 IBV      -0.094000
      8 C25        109.8920   100.8860    55.5280 ca         1 IBV       0.078900
      9 C27        108.6070   102.0110    57.0640 ca         1 IBV       0.054900
     10 C28        110.7260   102.8700    56.3270 ca         1 IBV       0.054900
     11 C1         108.4000   110.7640    59.2420 cc         1 IBV       0.171500
     12 C2         108.8720   109.5350    58.7030 cc         1 IBV      -0.007400
     13 C3         108.4160   105.8370    59.5050 ca         1 IBV       0.228500
     14 N4         108.8810   111.8060    58.5690 nd         1 IBV      -0.496800
     15 N5         107.6590   106.1400    60.6090 nb         1 IBV      -0.649000
     16 C7         108.9820   107.0150    58.7050 c          1 IBV       0.521600
     17 C8         109.6790   109.8400    57.6500 cd         1 IBV      -0.188000
     18 N9         109.6690   111.2310    57.5880 na         1 IBV       0.137800
     19 N10        108.5670   108.2540    59.1640 ns         1 IBV      -0.339100
     20 C12        107.1680   105.1320    61.3640 ca         1 IBV       0.356300
     21 N14        109.4520   104.1680    57.9670 nu         1 IBV      -0.978000
     22 N17        106.9920   112.0060    60.9880 n          1 IBV      -0.392800
     23 O18        107.0860   109.7250    60.9710 o          1 IBV      -0.636100
     24 O19        109.7500   106.8890    57.7510 o          1 IBV      -0.653100
     25 N20        108.7570   100.9390    56.2560 nb         1 IBV      -0.147000
     26 N21        110.8850   101.8010    55.5180 nb         1 IBV      -0.147000
     27 C29        106.0750   111.9780    62.1540 c3         1 IBV       0.091800
     28 C30        107.3680   113.3440    60.4710 c3         1 IBV       0.091800
     29 H33        106.0250   104.6360    63.1300 hc         1 IBV       0.080700
     30 H35        106.5110   106.6790    64.4760 hc         1 IBV       0.079700
     31 H36        107.4020   107.4330    63.0670 hc         1 IBV       0.079700
     32 H38        105.3160   107.2970    61.6680 hc         1 IBV       0.079700
     33 H37        104.4180   106.5440    63.0730 hc         1 IBV       0.079700
     34 H39        108.4060   102.4140    59.7130 ha         1 IBV       0.131000
     35 H40        107.0270   102.9970    61.6990 ha         1 IBV       0.127000
     36 H41        110.0160   100.0220    54.8770 h5         1 IBV       0.054100
     37 H44        111.0730   112.7390    57.1500 h1         1 IBV       0.060367
     38 H42        110.9650   111.4310    55.9350 h1         1 IBV       0.060367
     39 H43        109.6700   112.6600    56.0420 h1         1 IBV       0.060367
     40 H45        107.6750   102.0620    57.6230 h4         1 IBV       0.031100
     41 H46        111.5250   103.6100    56.3170 h4         1 IBV       0.031100
     42 H31        110.2410   109.2190    56.9630 h4         1 IBV       0.183000
     43 H32        107.9450   108.1860    59.9710 hn         1 IBV       0.386500
     44 H34        109.9310   105.0060    57.5950 hn         1 IBV       0.546000
     45 H47        105.7750   112.9910    62.4500 h1         1 IBV       0.045367
     46 H48        105.1730   111.4070    61.9010 h1         1 IBV       0.045367
     47 H49        106.5750   111.4970    63.0050 h1         1 IBV       0.045367
     48 H50        106.8950   114.1390    61.0610 h1         1 IBV       0.045367
     49 H52        108.4550   113.4780    60.5330 h1         1 IBV       0.045367
     50 H51        107.0350   113.4510    59.4310 h1         1 IBV       0.045367
     51 C6         107.4620   110.7700    60.4440 c          1 IBV       0.539600
     52 C26        110.3890   112.0670    56.6180 c3         1 IBV       0.075900
@<TRIPOS>BOND
     1     1     5 ar  
     2     1    13 ar  
     3     1    21 1   
     4     2     3 1   
     5     2     4 1   
     6     2    20 1   
     7     2    29 1   
     8     3     4 1   
     9     3    30 1   
    10     3    31 1   
    11     4    32 1   
    12     4    33 1   
    13     5     7 ar  
    14     5    34 1   
    15     6     9 ar  
    16     6    10 ar  
    17     6    21 1   
    18     7    20 ar  
    19     7    35 1   
    20     8    25 ar  
    21     8    26 ar  
    22     8    36 1   
    23     9    25 ar  
    24     9    40 1   
    25    10    26 ar  
    26    10    41 1   
    27    11    12 1   
    28    11    14 2   
    29    11    51 1   
    30    12    17 2   
    31    12    19 1   
    32    13    15 ar  
    33    13    16 1   
    34    14    18 1   
    35    15    20 ar  
    36    16    19 1   
    37    16    24 2   
    38    17    18 1   
    39    17    42 1   
    40    18    52 1   
    41    19    43 1   
    42    21    44 1   
    43    22    27 1   
    44    22    28 1   
    45    22    51 1   
    46    23    51 2   
    47    27    45 1   
    48    27    46 1   
    49    27    47 1   
    50    28    48 1   
    51    28    49 1   
    52    28    50 1   
    53    37    52 1   
    54    38    52 1   
    55    39    52 1   
@<TRIPOS>SUBSTRUCTURE
     1 IBV         1 TEMP              0 ****  ****    0 ROOT
