@<TRIPOS>MOLECULE
IBW
  118   121     1     0     0
SMALL
abcg2


@<TRIPOS>ATOM
      1 N1           6.8610    -9.1490     5.0560 nv         1 IBW      -1.041200
      2 C7          -0.2850   -14.7090     3.9820 c          1 IBW       0.593100
      3 C8          -1.2310   -13.9080     3.0870 c3         1 IBW       0.027700
      4 N2           5.6400    -9.6120     3.1680 n2         1 IBW      -0.915100
      5 C9          -1.8140   -14.7550     1.9500 c3         1 IBW      -0.044100
      6 C1           4.1700   -11.5890     4.7240 c3         1 IBW       0.156500
      7 C5           1.6000   -13.7880     6.6650 c3         1 IBW      -0.098400
      8 C6           0.5760   -14.8540     6.2890 c3         1 IBW       0.099000
      9 N3          -0.3610   -14.3960     5.2840 ns         1 IBW      -0.498900
     10 C4           2.4460   -13.3280     5.4850 c3         1 IBW      -0.076400
     11 C3           3.5040   -12.3150     5.8990 c3         1 IBW      -0.078400
     12 C2           5.8210    -9.7860     4.4310 c2         1 IBW       0.806100
     13 N4          -5.2210   -10.1920     1.0440 n8         1 IBW      -0.998200
     14 N            5.1040   -10.6230     5.2400 nu         1 IBW      -0.987400
     15 C            4.8150   -12.5910     3.7600 c          1 IBW       0.570100
     16 O            4.1710   -13.1160     2.8650 o          1 IBW      -0.591100
     17 C10         -2.5350   -13.8930     0.9490 ca         1 IBW      -0.085300
     18 C11         -3.7120   -13.2290     1.2940 ca         1 IBW      -0.099000
     19 C12         -4.3490   -12.3670     0.4100 ca         1 IBW      -0.079300
     20 C13         -5.5690   -11.5920     0.8300 c3         1 IBW       0.195100
     21 C14         -3.7990   -12.1790    -0.8580 ca         1 IBW      -0.085000
     22 C15         -2.6400   -12.8420    -1.2220 ca         1 IBW      -0.122000
     23 C16         -2.0050   -13.6880    -0.3190 ca         1 IBW      -0.115000
     24 C17         -0.9050   -11.5050     2.7400 c          1 IBW       0.594100
     25 C18         -0.3340   -10.4630     1.7760 c3         1 IBW       0.029700
     26 C19         -1.5000    -9.7250     1.1110 c3         1 IBW      -0.090400
     27 C20         -1.0610    -8.5970     0.1910 c3         1 IBW      -0.072400
     28 C21         -2.2490    -7.8750    -0.4290 c3         1 IBW      -0.080400
     29 C22         -1.8220    -6.7810    -1.3960 c3         1 IBW       0.149800
     30 C23          1.8790   -10.8250     0.7410 c          1 IBW       0.608100
     31 C24          2.5640   -11.4520    -0.4640 c3         1 IBW      -0.110100
     32 C25          3.9020   -10.8370    -0.7500 ca         1 IBW      -0.073300
     33 C26          4.0220    -9.7760    -1.6390 ca         1 IBW      -0.102000
     34 C27          5.2630    -9.1940    -1.8640 ca         1 IBW      -0.110000
     35 C28          6.3850    -9.6620    -1.1970 ca         1 IBW      -0.098000
     36 C29          6.2820   -10.7280    -0.3070 ca         1 IBW      -0.094300
     37 C30          7.5200   -11.2330     0.4000 c3         1 IBW       0.146300
     38 C31          7.2770   -13.2320     1.7990 c          1 IBW       0.587100
     39 C32          6.8550   -13.7910     3.1620 c3         1 IBW       0.029700
     40 C33          8.0850   -14.2990     3.9140 c3         1 IBW      -0.083400
     41 C34          7.7830   -15.0500     5.2110 c6         1 IBW      -0.057700
     42 C35          6.8770   -16.2630     4.9950 c6         1 IBW      -0.074900
     43 C36          6.6580   -17.0480     6.2850 c6         1 IBW      -0.072900
     44 C37          7.9790   -17.4680     6.9190 c6         1 IBW      -0.075400
     45 C38          8.8750   -16.2580     7.1530 c6         1 IBW      -0.072900
     46 C39          9.0990   -15.4810     5.8620 c6         1 IBW      -0.074900
     47 C40          5.0380   -11.3080    -0.1000 ca         1 IBW      -0.073000
     48 N5          -0.5090   -12.7760     2.5500 ns         1 IBW      -0.487900
     49 N6          -2.9790    -6.1160    -1.9780 n8         1 IBW      -0.995200
     50 N7           0.5430   -11.0240     0.7770 ns         1 IBW      -0.523900
     51 N8           7.2390   -11.9010     1.6450 ns         1 IBW      -0.491900
     52 N9           6.1120   -12.8660     3.9790 ns         1 IBW      -0.505900
     53 O2           2.4850   -10.2270     1.6140 o          1 IBW      -0.590100
     54 H1           6.8050    -9.0160     6.0530 hn         1 IBW       0.467500
     55 H2           7.2010    -8.3370     4.5680 hn         1 IBW       0.467500
     56 H3          -2.0520   -13.5090     3.6850 h1         1 IBW       0.081700
     57 H4           4.8320   -10.1070     2.8100 hn         1 IBW       0.418400
     58 H5          -2.4870   -15.4970     2.3860 hc         1 IBW       0.069700
     59 H6          -1.0120   -15.3060     1.4540 hc         1 IBW       0.069700
     60 H7           3.3810   -11.0870     4.1540 h1         1 IBW       0.104700
     61 H8           2.2420   -14.2010     7.4490 hc         1 IBW       0.042200
     62 H9           1.0850   -12.9300     7.1080 hc         1 IBW       0.042200
     63 H10          0.0140   -15.1580     7.1740 h1         1 IBW       0.059700
     64 H11          1.0780   -15.7420     5.9070 h1         1 IBW       0.059700
     65 H12         -1.0090   -13.6750     5.5620 hn         1 IBW       0.318500
     66 H13          1.8010   -12.8780     4.7250 hc         1 IBW       0.064200
     67 H14          2.9140   -14.1980     5.0200 hc         1 IBW       0.064200
     68 H15          4.2720   -12.8030     6.5090 hc         1 IBW       0.043700
     69 H16          3.0440   -11.5480     6.5290 hc         1 IBW       0.043700
     70 H17         -6.0580    -9.6700     1.2730 hn         1 IBW       0.399000
     71 H18         -4.6180   -10.1200     1.8560 hn         1 IBW       0.399000
     72 H20          5.3780   -10.7140     6.2060 hn         1 IBW       0.480000
     73 H21         -4.1360   -13.3790     2.2820 ha         1 IBW       0.112000
     74 H22         -6.3170   -11.6330     0.0350 h1         1 IBW       0.035200
     75 H23         -6.0200   -12.0750     1.7070 h1         1 IBW       0.035200
     76 H24         -4.2840   -11.5080    -1.5580 ha         1 IBW       0.122000
     77 H25         -2.2200   -12.6960    -2.2100 ha         1 IBW       0.113000
     78 H26         -1.0900   -14.1920    -0.6070 ha         1 IBW       0.112000
     79 H27          0.2440    -9.7540     2.3720 h1         1 IBW       0.105700
     80 H28         -2.1440    -9.3240     1.8950 hc         1 IBW       0.064200
     81 H29         -2.1040   -10.4460     0.5500 hc         1 IBW       0.064200
     82 H30         -0.4220    -8.9870    -0.6080 hc         1 IBW       0.038700
     83 H31         -0.4480    -7.8830     0.7520 hc         1 IBW       0.038700
     84 H32         -2.8740    -7.4380     0.3550 hc         1 IBW       0.052200
     85 H33         -2.8780    -8.6010    -0.9570 hc         1 IBW       0.052200
     86 H34         -1.1440    -7.2180    -2.1440 h1         1 IBW       0.025200
     87 H35         -1.2360    -6.0350    -0.8520 h1         1 IBW       0.025200
     88 H36          1.9130   -11.3830    -1.3380 hc         1 IBW       0.067200
     89 H37          2.6760   -12.5190    -0.2480 hc         1 IBW       0.067200
     90 H38          3.1460    -9.4000    -2.1540 ha         1 IBW       0.104000
     91 H39          5.3530    -8.3640    -2.5540 ha         1 IBW       0.110000
     92 H40          7.3480    -9.1920    -1.3670 ha         1 IBW       0.109000
     93 H41          8.0630   -11.9220    -0.2480 h1         1 IBW       0.064700
     94 H42          8.1930   -10.3950     0.5930 h1         1 IBW       0.064700
     95 H43          6.2090   -14.6390     2.9240 h1         1 IBW       0.100700
     96 H44          8.6370   -14.9600     3.2420 hc         1 IBW       0.059700
     97 H45          8.7460   -13.4530     4.1310 hc         1 IBW       0.059700
     98 H46          7.2780   -14.3730     5.9120 hc         1 IBW       0.037700
     99 H47          5.9090   -15.9510     4.5950 hc         1 IBW       0.043200
    100 H48          7.3320   -16.9160     4.2400 hc         1 IBW       0.043200
    101 H49          6.1000   -16.4240     6.9920 hc         1 IBW       0.037450
    102 H50          6.0350   -17.9220     6.0850 hc         1 IBW       0.037450
    103 H51          7.7980   -17.9970     7.8580 hc         1 IBW       0.039700
    104 H52          8.4900   -18.1740     6.2550 hc         1 IBW       0.039700
    105 H53          9.8350   -16.5700     7.5730 hc         1 IBW       0.037450
    106 H54          8.4100   -15.6020     7.8970 hc         1 IBW       0.037450
    107 H55          9.6550   -16.1080     5.1550 hc         1 IBW       0.043200
    108 H56          9.7220   -14.6020     6.0530 hc         1 IBW       0.043200
    109 H57          4.9330   -12.1330     0.5930 ha         1 IBW       0.131000
    110 H58          0.1470   -12.9570     1.8050 hn         1 IBW       0.333500
    111 H59         -2.6680    -5.3790    -2.5980 hn         1 IBW       0.390500
    112 H60         -3.4780    -6.7720    -2.5670 hn         1 IBW       0.390500
    113 H62          0.1030   -11.4380    -0.0330 hn         1 IBW       0.313500
    114 H63          6.8610   -11.3130     2.3800 hn         1 IBW       0.337500
    115 H64          6.5900   -12.3950     4.7330 hn         1 IBW       0.323500
    116 O4           0.4900   -15.5310     3.5170 o          1 IBW      -0.594100
    117 O1           7.6540   -14.0100     0.9330 o          1 IBW      -0.612100
    118 O3          -1.7030   -11.1670     3.6000 o          1 IBW      -0.618100
@<TRIPOS>BOND
     1     1    12 1   
     2     1    54 1   
     3     1    55 1   
     4     2     3 1   
     5     2     9 1   
     6     2   116 2   
     7     3     5 1   
     8     3    48 1   
     9     3    56 1   
    10     4    12 2   
    11     4    57 1   
    12     5    17 1   
    13     5    58 1   
    14     5    59 1   
    15     6    11 1   
    16     6    14 1   
    17     6    15 1   
    18     6    60 1   
    19     7     8 1   
    20     7    10 1   
    21     7    61 1   
    22     7    62 1   
    23     8     9 1   
    24     8    63 1   
    25     8    64 1   
    26     9    65 1   
    27    10    11 1   
    28    10    66 1   
    29    10    67 1   
    30    11    68 1   
    31    11    69 1   
    32    12    14 1   
    33    13    20 1   
    34    13    70 1   
    35    13    71 1   
    36    14    72 1   
    37    15    16 2   
    38    15    52 1   
    39    17    18 ar  
    40    17    23 ar  
    41    18    19 ar  
    42    18    73 1   
    43    19    20 1   
    44    19    21 ar  
    45    20    74 1   
    46    20    75 1   
    47    21    22 ar  
    48    21    76 1   
    49    22    23 ar  
    50    22    77 1   
    51    23    78 1   
    52    24    25 1   
    53    24    48 1   
    54    24   118 2   
    55    25    26 1   
    56    25    50 1   
    57    25    79 1   
    58    26    27 1   
    59    26    80 1   
    60    26    81 1   
    61    27    28 1   
    62    27    82 1   
    63    27    83 1   
    64    28    29 1   
    65    28    84 1   
    66    28    85 1   
    67    29    49 1   
    68    29    86 1   
    69    29    87 1   
    70    30    31 1   
    71    30    50 1   
    72    30    53 2   
    73    31    32 1   
    74    31    88 1   
    75    31    89 1   
    76    32    33 ar  
    77    32    47 ar  
    78    33    34 ar  
    79    33    90 1   
    80    34    35 ar  
    81    34    91 1   
    82    35    36 ar  
    83    35    92 1   
    84    36    37 1   
    85    36    47 ar  
    86    37    51 1   
    87    37    93 1   
    88    37    94 1   
    89    38    39 1   
    90    38    51 1   
    91    38   117 2   
    92    39    40 1   
    93    39    52 1   
    94    39    95 1   
    95    40    41 1   
    96    40    96 1   
    97    40    97 1   
    98    41    42 1   
    99    41    46 1   
   100    41    98 1   
   101    42    43 1   
   102    42    99 1   
   103    42   100 1   
   104    43    44 1   
   105    43   101 1   
   106    43   102 1   
   107    44    45 1   
   108    44   103 1   
   109    44   104 1   
   110    45    46 1   
   111    45   105 1   
   112    45   106 1   
   113    46   107 1   
   114    46   108 1   
   115    47   109 1   
   116    48   110 1   
   117    49   111 1   
   118    49   112 1   
   119    50   113 1   
   120    51   114 1   
   121    52   115 1   
@<TRIPOS>SUBSTRUCTURE
     1 IBW         1 TEMP              0 ****  ****    0 ROOT
