@<TRIPOS>MOLECULE
IBW
  118   121     1     0     0
SMALL
No Charge or Current Charge


@<TRIPOS>ATOM
      1 N1           6.7270   -10.4800     5.6360 nv         1 IBW      -1.041200
      2 C7          -0.5560   -14.5730     2.9640 c          1 IBW       0.593100
      3 C8          -1.6580   -13.5480     2.5880 c3         1 IBW       0.027700
      4 N2           5.6580   -10.0940     3.7210 n2         1 IBW      -0.915100
      5 C9          -2.8510   -14.2370     1.8780 c3         1 IBW      -0.044100
      6 C1           4.2950   -12.4650     4.5140 c3         1 IBW       0.156500
      7 C5           1.4830   -15.0650     5.6150 c3         1 IBW      -0.098400
      8 C6           0.4040   -15.8990     4.8840 c3         1 IBW       0.099000
      9 N3          -0.6220   -15.0600     4.2530 ns         1 IBW      -0.498900
     10 C4           2.3580   -14.1920     4.6820 c3         1 IBW      -0.076400
     11 C3           3.4310   -13.3690     5.4350 c3         1 IBW      -0.078400
     12 C2           5.6520   -10.3900     4.9180 c2         1 IBW       0.806100
     13 N4          -6.6570    -9.9830     3.2470 n8         1 IBW      -0.998200
     14 N            4.9340   -11.3980     5.3620 nu         1 IBW      -0.987400
     15 C            5.3300   -13.3030     3.6690 c          1 IBW       0.570100
     16 O            5.0120   -14.0560     2.7570 o          1 IBW      -0.591100
     17 C10         -3.9070   -13.2530     1.3850 ca         1 IBW      -0.085300
     18 C11         -4.8990   -12.7750     2.2640 ca         1 IBW      -0.099000
     19 C12         -5.8700   -11.8550     1.8200 ca         1 IBW      -0.079300
     20 C13         -6.9460   -11.3490     2.7730 c3         1 IBW       0.195100
     21 C14         -5.8400   -11.4110     0.4830 ca         1 IBW      -0.085000
     22 C15         -4.8530   -11.8820    -0.3980 ca         1 IBW      -0.122000
     23 C16         -3.8910   -12.8020     0.0500 ca         1 IBW      -0.115000
     24 C17         -1.3110   -11.1430     1.8430 c          1 IBW       0.594100
     25 C18         -0.5250   -10.2290     0.8560 c3         1 IBW       0.029700
     26 C19         -1.4740    -9.5760    -0.1790 c3         1 IBW      -0.090400
     27 C20         -0.7880    -8.5230    -1.0840 c3         1 IBW      -0.072400
     28 C21         -1.7640    -7.8510    -2.0740 c3         1 IBW      -0.080400
     29 C22         -1.0770    -6.8040    -2.9730 c3         1 IBW       0.149800
     30 C23          1.7810   -11.2690     0.7840 c          1 IBW       0.608100
     31 C24          2.8340   -11.8930    -0.1350 c3         1 IBW      -0.110100
     32 C25          4.0370   -10.9670    -0.2870 ca         1 IBW      -0.073300
     33 C26          3.8880    -9.6970    -0.8760 ca         1 IBW      -0.102000
     34 C27          4.9920    -8.8340    -0.9790 ca         1 IBW      -0.110000
     35 C28          6.2470    -9.2310    -0.4890 ca         1 IBW      -0.098000
     36 C29          6.4110   -10.4990     0.1010 ca         1 IBW      -0.094300
     37 C30          7.7760   -10.9220     0.6370 c3         1 IBW       0.146300
     38 C31          8.2550   -12.9490     2.0650 c          1 IBW       0.587100
     39 C32          7.8120   -13.7310     3.3390 c3         1 IBW       0.029700
     40 C33          8.9820   -13.9170     4.3400 c3         1 IBW      -0.083400
     41 C34          8.6320   -14.6340     5.6840 c6         1 IBW      -0.057700
     42 C35          8.0370   -16.0560     5.4670 c6         1 IBW      -0.074900
     43 C36          7.7130   -16.7510     6.8130 c6         1 IBW      -0.072900
     44 C37          8.9600   -16.8130     7.7280 c6         1 IBW      -0.075400
     45 C38          9.5530   -15.4020     7.9550 c6         1 IBW      -0.072900
     46 C39          9.8800   -14.7100     6.6090 c6         1 IBW      -0.074900
     47 C40          5.3020   -11.3670     0.1850 ca         1 IBW      -0.073000
     48 N5          -1.0680   -12.4970     1.7330 ns         1 IBW      -0.487900
     49 N6          -2.0330    -6.1770    -3.9040 n8         1 IBW      -0.995200
     50 N7           0.5850   -10.9450     0.1770 ns         1 IBW      -0.523900
     51 N8           7.6590   -11.7210     1.8590 ns         1 IBW      -0.491900
     52 N9           6.6520   -13.0950     3.9970 ns         1 IBW      -0.505900
     53 O2           1.9690   -11.0870     1.9780 o          1 IBW      -0.590100
     54 H1           6.5860   -10.0390     6.5340 hn         1 IBW       0.467500
     55 H2           7.4850   -10.0400     5.1350 hn         1 IBW       0.467500
     56 H3          -2.0160   -13.0890     3.5190 h1         1 IBW       0.081700
     57 H4           4.7440   -10.3950     3.3740 hn         1 IBW       0.418400
     58 H5          -3.3050   -14.9610     2.5660 hc         1 IBW       0.069700
     59 H6          -2.4700   -14.8260     1.0350 hc         1 IBW       0.069700
     60 H7           3.6230   -11.9930     3.7850 h1         1 IBW       0.104700
     61 H8           2.1350   -15.7530     6.1670 hc         1 IBW       0.042200
     62 H9           0.9950   -14.4270     6.3630 hc         1 IBW       0.042200
     63 H10         -0.0920   -16.5570     5.6100 h1         1 IBW       0.059700
     64 H11          0.8770   -16.5390     4.1270 h1         1 IBW       0.059700
     65 H12         -1.3910   -14.7330     4.8270 hn         1 IBW       0.318500
     66 H13          1.7180   -13.4940     4.1290 hc         1 IBW       0.064200
     67 H14          2.8350   -14.8440     3.9420 hc         1 IBW       0.064200
     68 H15          4.0850   -14.0420     6.0030 hc         1 IBW       0.043700
     69 H16          2.9130   -12.7380     6.1670 hc         1 IBW       0.043700
     70 H17         -7.3430    -9.7290     3.9680 hn         1 IBW       0.399000
     71 H18         -5.7630    -9.9970     3.7520 hn         1 IBW       0.399000
     72 H20          5.3110   -11.7140     6.2460 hn         1 IBW       0.480000
     73 H21         -4.9120   -13.1170     3.2970 ha         1 IBW       0.112000
     74 H22         -7.9200   -11.3500     2.2650 h1         1 IBW       0.035200
     75 H23         -7.0160   -12.0170     3.6430 h1         1 IBW       0.035200
     76 H24         -6.5830   -10.6980     0.1310 ha         1 IBW       0.122000
     77 H25         -4.8330   -11.5340    -1.4280 ha         1 IBW       0.113000
     78 H26         -3.1270   -13.1590    -0.6380 ha         1 IBW       0.112000
     79 H27         -0.0890    -9.4330     1.4740 h1         1 IBW       0.105700
     80 H28         -2.3010    -9.0930     0.3570 hc         1 IBW       0.064200
     81 H29         -1.9230   -10.3590    -0.8030 hc         1 IBW       0.064200
     82 H30          0.0230    -8.9960    -1.6510 hc         1 IBW       0.038700
     83 H31         -0.3280    -7.7520    -0.4530 hc         1 IBW       0.038700
     84 H32         -2.5730    -7.3690    -1.5120 hc         1 IBW       0.052200
     85 H33         -2.2250    -8.6230    -2.7040 hc         1 IBW       0.052200
     86 H34         -0.2790    -7.2820    -3.5580 h1         1 IBW       0.025200
     87 H35         -0.6290    -6.0180    -2.3500 h1         1 IBW       0.025200
     88 H36          2.4010   -12.0990    -1.1200 hc         1 IBW       0.067200
     89 H37          3.1450   -12.8440     0.3120 hc         1 IBW       0.067200
     90 H38          2.9180    -9.3760    -1.2480 ha         1 IBW       0.104000
     91 H39          4.8720    -7.8530    -1.4330 ha         1 IBW       0.110000
     92 H40          7.0930    -8.5510    -0.5680 ha         1 IBW       0.109000
     93 H41          8.3000   -11.4940    -0.1410 h1         1 IBW       0.064700
     94 H42          8.3790   -10.0330     0.8630 h1         1 IBW       0.064700
     95 H43          7.5020   -14.7210     2.9810 h1         1 IBW       0.100700
     96 H44          9.7840   -14.4670     3.8310 hc         1 IBW       0.059700
     97 H45          9.3950   -12.9250     4.5630 hc         1 IBW       0.059700
     98 H46          7.8780   -14.0150     6.1900 hc         1 IBW       0.037700
     99 H47          7.1160   -15.9980     4.8710 hc         1 IBW       0.043200
    100 H48          8.7420   -16.6740     4.8930 hc         1 IBW       0.043200
    101 H49          6.9060   -16.2070     7.3240 hc         1 IBW       0.037450
    102 H50          7.3370   -17.7660     6.6270 hc         1 IBW       0.037450
    103 H51          8.6930   -17.2660     8.6930 hc         1 IBW       0.039700
    104 H52          9.7190   -17.4660     7.2750 hc         1 IBW       0.039700
    105 H53         10.4630   -15.4750     8.5670 hc         1 IBW       0.037450
    106 H54          8.8420   -14.7880     8.5240 hc         1 IBW       0.037450
    107 H55         10.6880   -15.2570     6.1020 hc         1 IBW       0.043200
    108 H56         10.2640   -13.6990     6.8030 hc         1 IBW       0.043200
    109 H57          5.4180   -12.3530     0.6280 ha         1 IBW       0.131000
    110 H58         -0.3990   -12.7720     1.0240 hn         1 IBW       0.333500
    111 H59         -1.5250    -5.5330    -4.5220 hn         1 IBW       0.390500
    112 H60         -2.3910    -6.8940    -4.5470 hn         1 IBW       0.390500
    113 H62          0.5140   -11.1220    -0.8180 hn         1 IBW       0.313500
    114 H63          7.0110   -11.4000     2.5740 hn         1 IBW       0.337500
    115 H64          6.8080   -12.3930     4.7200 hn         1 IBW       0.323500
    116 O4           0.3270   -14.9090     2.1840 o          1 IBW      -0.594100
    117 O1           9.0600   -13.4120     1.2670 o          1 IBW      -0.612100
    118 O3          -2.0590   -10.6880     2.6990 o          1 IBW      -0.618100
@<TRIPOS>BOND
     1     1    12 1   
     2     1    54 1   
     3     1    55 1   
     4     2     3 1   
     5     2     9 1   
     6     2   116 2   
     7     3     5 1   
     8     3    48 1   
     9     3    56 1   
    10     4    12 2   
    11     4    57 1   
    12     5    17 1   
    13     5    58 1   
    14     5    59 1   
    15     6    11 1   
    16     6    14 1   
    17     6    15 1   
    18     6    60 1   
    19     7     8 1   
    20     7    10 1   
    21     7    61 1   
    22     7    62 1   
    23     8     9 1   
    24     8    63 1   
    25     8    64 1   
    26     9    65 1   
    27    10    11 1   
    28    10    66 1   
    29    10    67 1   
    30    11    68 1   
    31    11    69 1   
    32    12    14 1   
    33    13    20 1   
    34    13    70 1   
    35    13    71 1   
    36    14    72 1   
    37    15    16 2   
    38    15    52 1   
    39    17    18 ar  
    40    17    23 ar  
    41    18    19 ar  
    42    18    73 1   
    43    19    20 1   
    44    19    21 ar  
    45    20    74 1   
    46    20    75 1   
    47    21    22 ar  
    48    21    76 1   
    49    22    23 ar  
    50    22    77 1   
    51    23    78 1   
    52    24    25 1   
    53    24    48 1   
    54    24   118 2   
    55    25    26 1   
    56    25    50 1   
    57    25    79 1   
    58    26    27 1   
    59    26    80 1   
    60    26    81 1   
    61    27    28 1   
    62    27    82 1   
    63    27    83 1   
    64    28    29 1   
    65    28    84 1   
    66    28    85 1   
    67    29    49 1   
    68    29    86 1   
    69    29    87 1   
    70    30    31 1   
    71    30    50 1   
    72    30    53 2   
    73    31    32 1   
    74    31    88 1   
    75    31    89 1   
    76    32    33 ar  
    77    32    47 ar  
    78    33    34 ar  
    79    33    90 1   
    80    34    35 ar  
    81    34    91 1   
    82    35    36 ar  
    83    35    92 1   
    84    36    37 1   
    85    36    47 ar  
    86    37    51 1   
    87    37    93 1   
    88    37    94 1   
    89    38    39 1   
    90    38    51 1   
    91    38   117 2   
    92    39    40 1   
    93    39    52 1   
    94    39    95 1   
    95    40    41 1   
    96    40    96 1   
    97    40    97 1   
    98    41    42 1   
    99    41    46 1   
   100    41    98 1   
   101    42    43 1   
   102    42    99 1   
   103    42   100 1   
   104    43    44 1   
   105    43   101 1   
   106    43   102 1   
   107    44    45 1   
   108    44   103 1   
   109    44   104 1   
   110    45    46 1   
   111    45   105 1   
   112    45   106 1   
   113    46   107 1   
   114    46   108 1   
   115    47   109 1   
   116    48   110 1   
   117    49   111 1   
   118    49   112 1   
   119    50   113 1   
   120    51   114 1   
   121    52   115 1   
@<TRIPOS>SUBSTRUCTURE
     1 IBW         1 TEMP              0 ****  ****    0 ROOT
