@<TRIPOS>MOLECULE
IBY
   43    46     1     0     0
SMALL
abcg2


@<TRIPOS>ATOM
      1 C11         93.3180   -13.3850     7.8540 ca         1 IBY      -0.099500
      2 C13         91.5990   -14.8630     7.0050 ca         1 IBY      -0.115500
      3 C15         93.5340   -14.4050     5.6680 ca         1 IBY      -0.115500
      4 C16         94.0300   -13.5820     6.6670 ca         1 IBY      -0.095500
      5 C17         93.8340   -12.5230     8.9160 cc         1 IBY       0.298500
      6 C18         95.0120   -11.8230     8.9600 cd         1 IBY      -0.213000
      7 C20         93.8810   -11.5200    10.8120 cd         1 IBY       0.404800
      8 C22         93.5000   -10.9950    12.1520 c3         1 IBY      -0.101700
      9 C24         92.9710    -9.5530    12.0880 c3         1 IBY      -0.131700
     10 C1          89.1060    -8.5850    16.6140 ca         1 IBY      -0.102000
     11 C2          90.0030    -8.0370    17.5560 ca         1 IBY      -0.106000
     12 C3          91.3250    -7.8820    17.2380 ca         1 IBY      -0.092000
     13 C4          89.5440    -8.9700    15.3760 ca         1 IBY      -0.081000
     14 C5          90.9040    -8.8230    15.0210 ca         1 IBY       0.274000
     15 C6          91.8020    -8.2710    15.9670 ca         1 IBY      -0.085000
     16 C7          93.1520    -8.1350    15.5750 ca         1 IBY      -0.059000
     17 C8          93.5280    -8.5310    14.3270 ca         1 IBY      -0.166000
     18 C9          92.5560    -9.0730    13.4480 ca         1 IBY       0.364300
     19 N10         91.3010    -9.2130    13.7860 nb         1 IBY      -0.659000
     20 C12         92.0930   -14.0380     8.0050 ca         1 IBY      -0.095500
     21 C14         92.3160   -15.0530     5.8310 ca         1 IBY      -0.111000
     22 N19         95.0310   -11.1940    10.1710 na         1 IBY      -0.162500
     23 N21         93.1450   -12.3190    10.0800 nc         1 IBY      -0.665000
     24 H1          90.6470   -15.3610     7.1450 ha         1 IBY       0.109500
     25 H2          94.1040   -14.5420     4.7580 ha         1 IBY       0.109500
     26 H3          94.9830   -13.0900     6.5150 ha         1 IBY       0.118000
     27 H4          95.8260   -11.7220     8.2600 h4         1 IBY       0.156000
     28 H5          92.7220   -11.6460    12.5530 hc         1 IBY       0.067200
     29 H6          94.3450   -11.0500    12.8430 hc         1 IBY       0.067200
     30 H7          95.8430    -9.2680    10.4010 h1         1 IBY       0.052700
     31 H8          96.1960   -10.4020    11.7140 h1         1 IBY       0.052700
     32 H9          97.0130   -10.5740    10.1630 h1         1 IBY       0.052700
     33 H10         92.1150    -9.5140    11.4130 hc         1 IBY       0.063200
     34 H11         93.7410    -8.8920    11.6830 hc         1 IBY       0.063200
     35 H12         88.0630    -8.7010    16.8780 ha         1 IBY       0.117000
     36 H13         89.6390    -7.7390    18.5300 ha         1 IBY       0.116000
     37 H14         92.0200    -7.4620    17.9540 ha         1 IBY       0.114000
     38 H15         88.8620    -9.3910    14.6470 ha         1 IBY       0.133000
     39 H16         93.8720    -7.7150    16.2680 ha         1 IBY       0.118000
     40 H17         94.5550    -8.4360    13.9960 ha         1 IBY       0.118000
     41 H18         91.5230   -13.9010     8.9140 ha         1 IBY       0.118000
     42 H19         91.9300   -15.6970     5.0520 ha         1 IBY       0.110000
     43 C23         96.0730   -10.3060    10.6380 c3         1 IBY       0.057900
@<TRIPOS>BOND
     1     1     4 ar  
     2     1     5 1   
     3     1    20 ar  
     4     2    20 ar  
     5     2    21 ar  
     6     2    24 1   
     7     3     4 ar  
     8     3    21 ar  
     9     3    25 1   
    10     4    26 1   
    11     5     6 2   
    12     5    23 1   
    13     6    22 1   
    14     6    27 1   
    15     7     8 1   
    16     7    22 1   
    17     7    23 2   
    18     8     9 1   
    19     8    28 1   
    20     8    29 1   
    21     9    18 1   
    22     9    33 1   
    23     9    34 1   
    24    10    11 ar  
    25    10    13 ar  
    26    10    35 1   
    27    11    12 ar  
    28    11    36 1   
    29    12    15 ar  
    30    12    37 1   
    31    13    14 ar  
    32    13    38 1   
    33    14    15 ar  
    34    14    19 ar  
    35    15    16 ar  
    36    16    17 ar  
    37    16    39 1   
    38    17    18 ar  
    39    17    40 1   
    40    18    19 ar  
    41    20    41 1   
    42    21    42 1   
    43    22    43 1   
    44    30    43 1   
    45    31    43 1   
    46    32    43 1   
@<TRIPOS>SUBSTRUCTURE
     1 IBY         1 TEMP              0 ****  ****    0 ROOT
