@<TRIPOS>MOLECULE
IBY
   43    46     1     0     0
SMALL
No Charge or Current Charge


@<TRIPOS>ATOM
      1 C11         93.3400   -13.4190     7.8260 ca         1 IBY      -0.099500
      2 C13         91.7120   -15.0050     6.9050 ca         1 IBY      -0.115500
      3 C15         93.5280   -14.2010     5.5090 ca         1 IBY      -0.115500
      4 C16         94.0000   -13.4130     6.5740 ca         1 IBY      -0.095500
      5 C17         93.8040   -12.5830     8.9460 cc         1 IBY       0.298500
      6 C18         95.0350   -11.9800     8.9540 cd         1 IBY      -0.213000
      7 C20         93.8770   -11.5660    10.8170 cd         1 IBY       0.404800
      8 C22         93.4800   -11.0380    12.1730 c3         1 IBY      -0.101700
      9 C24         92.8630    -9.6190    12.1130 c3         1 IBY      -0.131700
     10 C1          89.0780    -8.4730    16.7740 ca         1 IBY      -0.102000
     11 C2          89.9980    -7.8560    17.6360 ca         1 IBY      -0.106000
     12 C3          91.3350    -7.6990    17.2380 ca         1 IBY      -0.092000
     13 C4          89.4960    -8.9320    15.5120 ca         1 IBY      -0.081000
     14 C5          90.8320    -8.7850    15.0920 ca         1 IBY       0.274000
     15 C6          91.7520    -8.1600    15.9740 ca         1 IBY      -0.085000
     16 C7          93.0900    -8.0040    15.5730 ca         1 IBY      -0.059000
     17 C8          93.4640    -8.4780    14.3070 ca         1 IBY      -0.166000
     18 C9          92.4950    -9.0840    13.4890 ca         1 IBY       0.364300
     19 N10         91.2080    -9.2370    13.8720 nb         1 IBY      -0.659000
     20 C12         92.1820   -14.2180     7.9700 ca         1 IBY      -0.095500
     21 C14         92.3860   -15.0000     5.6740 ca         1 IBY      -0.111000
     22 N19         95.0830   -11.3140    10.1680 na         1 IBY      -0.162500
     23 N21         93.0910   -12.3390    10.0850 nc         1 IBY      -0.665000
     24 H1          90.8240   -15.6190     7.0340 ha         1 IBY       0.109500
     25 H2          94.0480   -14.1890     4.5540 ha         1 IBY       0.109500
     26 H3          94.8790   -12.7950     6.4100 ha         1 IBY       0.118000
     27 H4          95.8430   -11.9780     8.2350 h4         1 IBY       0.156000
     28 H5          92.7570   -11.7200    12.6350 hc         1 IBY       0.067200
     29 H6          94.3530   -11.0270    12.8360 hc         1 IBY       0.067200
     30 H7          95.8640    -9.4760    10.8510 h1         1 IBY       0.052700
     31 H8          96.5790   -10.9330    11.6070 h1         1 IBY       0.052700
     32 H9          97.0140   -10.4880     9.9310 h1         1 IBY       0.052700
     33 H10         91.9790    -9.6400    11.4640 hc         1 IBY       0.063200
     34 H11         93.5740    -8.9350    11.6340 hc         1 IBY       0.063200
     35 H12         88.0410    -8.5960    17.0810 ha         1 IBY       0.117000
     36 H13         89.6750    -7.5000    18.6130 ha         1 IBY       0.116000
     37 H14         92.0440    -7.2210    17.9100 ha         1 IBY       0.114000
     38 H15         88.7790    -9.4090    14.8490 ha         1 IBY       0.133000
     39 H16         93.8220    -7.5310    16.2240 ha         1 IBY       0.118000
     40 H17         94.4890    -8.3780    13.9620 ha         1 IBY       0.118000
     41 H18         91.6430   -14.2350     8.9150 ha         1 IBY       0.118000
     42 H19         92.0220   -15.6090     4.8490 ha         1 IBY       0.110000
     43 C23         96.2030   -10.5030    10.6700 c3         1 IBY       0.057900
@<TRIPOS>BOND
     1     1     4 ar  
     2     1     5 1   
     3     1    20 ar  
     4     2    20 ar  
     5     2    21 ar  
     6     2    24 1   
     7     3     4 ar  
     8     3    21 ar  
     9     3    25 1   
    10     4    26 1   
    11     5     6 2   
    12     5    23 1   
    13     6    22 1   
    14     6    27 1   
    15     7     8 1   
    16     7    22 1   
    17     7    23 2   
    18     8     9 1   
    19     8    28 1   
    20     8    29 1   
    21     9    18 1   
    22     9    33 1   
    23     9    34 1   
    24    10    11 ar  
    25    10    13 ar  
    26    10    35 1   
    27    11    12 ar  
    28    11    36 1   
    29    12    15 ar  
    30    12    37 1   
    31    13    14 ar  
    32    13    38 1   
    33    14    15 ar  
    34    14    19 ar  
    35    15    16 ar  
    36    16    17 ar  
    37    16    39 1   
    38    17    18 ar  
    39    17    40 1   
    40    18    19 ar  
    41    20    41 1   
    42    21    42 1   
    43    22    43 1   
    44    30    43 1   
    45    31    43 1   
    46    32    43 1   
@<TRIPOS>SUBSTRUCTURE
     1 IBY         1 TEMP              0 ****  ****    0 ROOT
