@<TRIPOS>MOLECULE
IBZ
   16    16     1     0     0
SMALL
No Charge or Current Charge


@<TRIPOS>ATOM
      1 S            5.3340    -1.0960     3.1560 sh         1 IBZ      -0.427800
      2 C            4.0490    -2.3620     2.7260 c3         1 IBZ       0.119900
      3 C1           2.9010    -1.6800     1.9910 ca         1 IBZ      -0.058300
      4 C2           1.8280    -1.0730     2.6850 ca         1 IBZ       0.216000
      5 C3           0.7880    -0.4520     1.9720 ca         1 IBZ      -0.081000
      6 C4           0.8050    -0.4280     0.5680 ca         1 IBZ      -0.108000
      7 C5           1.8670    -1.0280    -0.1280 ca         1 IBZ      -0.094000
      8 C6           2.9100    -1.6500     0.5810 ca         1 IBZ      -0.113000
      9 I            1.7240    -1.0590     4.8610 i          1 IBZ      -0.305000
     10 H1           3.6980    -2.8590     3.6380 h1         1 IBZ       0.083200
     11 H2           4.5060    -3.1270     2.0840 h1         1 IBZ       0.083200
     12 H3          -0.0330     0.0130     2.5130 ha         1 IBZ       0.129000
     13 H4          -0.0020     0.0540     0.0200 ha         1 IBZ       0.119000
     14 H5           1.8840    -1.0100    -1.2160 ha         1 IBZ       0.118000
     15 H6           3.7280    -2.1090     0.0300 ha         1 IBZ       0.112000
     16 HS1          5.5550    -0.6770     1.8860 hs         1 IBZ       0.205800
@<TRIPOS>BOND
     1     1     2 1   
     2     1    16 1   
     3     2     3 1   
     4     2    10 1   
     5     2    11 1   
     6     3     4 ar  
     7     3     8 ar  
     8     4     5 ar  
     9     4     9 1   
    10     5     6 ar  
    11     5    12 1   
    12     6     7 ar  
    13     6    13 1   
    14     7     8 ar  
    15     7    14 1   
    16     8    15 1   
@<TRIPOS>SUBSTRUCTURE
     1 IBZ         1 TEMP              0 ****  ****    0 ROOT
