@<TRIPOS>MOLECULE
IBZ
   16    16     1     0     0
SMALL
abcg2


@<TRIPOS>ATOM
      1 S            5.2640    -1.1170     3.3010 sh         1 IBZ      -0.427800
      2 C            4.0480    -2.3230     2.6650 c3         1 IBZ       0.119900
      3 C1           2.8900    -1.6690     1.9780 ca         1 IBZ      -0.058300
      4 C2           1.8380    -1.0450     2.6480 ca         1 IBZ       0.216000
      5 C3           0.7920    -0.4420     1.9640 ca         1 IBZ      -0.081000
      6 C4           0.7860    -0.4470     0.5760 ca         1 IBZ      -0.108000
      7 C5           1.8210    -1.0570    -0.1170 ca         1 IBZ      -0.094000
      8 C6           2.8540    -1.6600     0.5830 ca         1 IBZ      -0.113000
      9 I            1.7790    -0.9850     4.7560 i          1 IBZ      -0.305000
     10 H1           3.7370    -2.9070     3.5310 h1         1 IBZ       0.083200
     11 H2           4.5570    -3.0050     1.9860 h1         1 IBZ       0.083200
     12 H3          -0.0190     0.0320     2.4990 ha         1 IBZ       0.129000
     13 H4          -0.0300     0.0250     0.0450 ha         1 IBZ       0.119000
     14 H5           1.8240    -1.0680    -1.1980 ha         1 IBZ       0.118000
     15 H6           3.6600    -2.1390     0.0400 ha         1 IBZ       0.112000
     16 HS1          5.7420    -0.7360     2.1110 hs         1 IBZ       0.205800
@<TRIPOS>BOND
     1     1     2 1   
     2     1    16 1   
     3     2     3 1   
     4     2    10 1   
     5     2    11 1   
     6     3     4 ar  
     7     3     8 ar  
     8     4     5 ar  
     9     4     9 1   
    10     5     6 ar  
    11     5    12 1   
    12     6     7 ar  
    13     6    13 1   
    14     7     8 ar  
    15     7    14 1   
    16     8    15 1   
@<TRIPOS>SUBSTRUCTURE
     1 IBZ         1 TEMP              0 ****  ****    0 ROOT
