@<TRIPOS>MOLECULE
IC1
   40    42     1     0     0
SMALL
No Charge or Current Charge


@<TRIPOS>ATOM
      1 N1          -0.5890    -0.3700    -3.9370 ns         1 IC1      -0.406100
      2 C2          -1.5080    -0.5530    -2.9390 c          1 IC1       0.565200
      3 O2          -2.6080    -1.0730    -3.0470 o          1 IC1      -0.538000
      4 C3          -0.8330     0.0000    -1.7340 cc         1 IC1      -0.151400
      5 C4           1.4660     1.2280    -1.5000 ca         1 IC1      -0.049000
      6 C5           2.6110     1.6240    -2.2270 ca         1 IC1      -0.152000
      7 C6           2.7340     1.3260    -3.6060 ca         1 IC1      -0.080000
      8 C7           1.7030     0.6390    -4.2820 ca         1 IC1      -0.152000
      9 C8           0.5880     0.2520    -3.5340 ca         1 IC1       0.060600
     10 C9           0.4710     0.5060    -2.1780 ca         1 IC1      -0.078800
     11 C10         -1.3520    -0.0390    -0.4650 cf         1 IC1      -0.002200
     12 C1          -0.7630    -0.0870     0.8990 ca         1 IC1      -0.194800
     13 C14         -1.5350     0.3840     1.9810 ca         1 IC1       0.232100
     14 C15         -1.0070     0.3740     3.2860 ca         1 IC1      -0.310000
     15 C16          0.2750    -0.1190     3.5270 ca         1 IC1       0.230100
     16 C17          1.0370    -0.6310     2.4650 ca         1 IC1      -0.310000
     17 C18          0.5180    -0.6290     1.1540 ca         1 IC1       0.232100
     18 O1          -2.7980     0.8810     1.7180 os         1 IC1      -0.328600
     19 O4           0.7300    -0.0960     4.8280 os         1 IC1      -0.339100
     20 O6           1.2060    -1.2300     0.1180 os         1 IC1      -0.328600
     21 C11         -3.6590     1.3970     2.7490 c3         1 IC1       0.148400
     22 C12          2.0350    -0.5770     5.1980 c3         1 IC1       0.149900
     23 C13          2.5370    -1.7540     0.2580 c3         1 IC1       0.148400
     24 HN1         -0.7670    -0.6510    -4.8930 hn         1 IC1       0.336500
     25 H41          1.3620     1.4800    -0.4480 ha         1 IC1       0.117000
     26 H51          3.4030     2.1730    -1.7220 ha         1 IC1       0.111000
     27 H61          3.6200     1.6450    -4.1520 ha         1 IC1       0.110000
     28 H71          1.7690     0.4280    -5.3470 ha         1 IC1       0.118000
     29 H101        -2.3970    -0.3590    -0.4690 ha         1 IC1       0.202000
     30 H3'1        -1.5770     0.7480     4.1290 ha         1 IC1       0.131000
     31 H5'1         2.0180    -1.0450     2.6610 ha         1 IC1       0.131000
     32 H111        -4.6090     1.7320     2.3160 h1         1 IC1       0.045033
     33 H112        -3.8790     0.6240     3.4960 h1         1 IC1       0.045033
     34 H113        -3.1940     2.2540     3.2520 h1         1 IC1       0.045033
     35 H121         2.1920    -0.4580     6.2770 h1         1 IC1       0.043367
     36 H122         2.1420    -1.6420     4.9540 h1         1 IC1       0.043367
     37 H123         2.8200    -0.0150     4.6760 h1         1 IC1       0.043367
     38 H131         2.8900    -2.1490    -0.7030 h1         1 IC1       0.045033
     39 H132         3.2330    -0.9680     0.5780 h1         1 IC1       0.045033
     40 H133         2.5610    -2.5710     0.9900 h1         1 IC1       0.045033
@<TRIPOS>BOND
     1     1     2 1   
     2     1     9 1   
     3     1    24 1   
     4     2     3 2   
     5     2     4 1   
     6     4    10 1   
     7     4    11 2   
     8     5     6 ar  
     9     5    10 ar  
    10     5    25 1   
    11     6     7 ar  
    12     6    26 1   
    13     7     8 ar  
    14     7    27 1   
    15     8     9 ar  
    16     8    28 1   
    17     9    10 ar  
    18    11    12 1   
    19    11    29 1   
    20    12    13 ar  
    21    12    17 ar  
    22    13    14 ar  
    23    13    18 1   
    24    14    15 ar  
    25    14    30 1   
    26    15    16 ar  
    27    15    19 1   
    28    16    17 ar  
    29    16    31 1   
    30    17    20 1   
    31    18    21 1   
    32    19    22 1   
    33    20    23 1   
    34    21    32 1   
    35    21    33 1   
    36    21    34 1   
    37    22    35 1   
    38    22    36 1   
    39    22    37 1   
    40    23    38 1   
    41    23    39 1   
    42    23    40 1   
@<TRIPOS>SUBSTRUCTURE
     1 IC1         1 TEMP              0 ****  ****    0 ROOT
