@<TRIPOS>MOLECULE
IC1
   40    42     1     0     0
SMALL
bcc


@<TRIPOS>ATOM
      1 N1          -0.7080    -0.1170    -3.9250 ns         1 IC1      -0.473100
      2 C2          -1.5170    -0.4820    -2.8890 c          1 IC1       0.707700
      3 O2          -2.6260    -0.9730    -2.9900 o          1 IC1      -0.613500
      4 C3          -0.7550    -0.1700    -1.6410 cc         1 IC1      -0.151400
      5 C4           1.5780     0.9980    -1.4120 ca         1 IC1      -0.067000
      6 C5           2.6250     1.5370    -2.1550 ca         1 IC1      -0.170000
      7 C6           2.5970     1.5080    -3.5450 ca         1 IC1      -0.098000
      8 C7           1.5140     0.9620    -4.2300 ca         1 IC1      -0.170000
      9 C8           0.4810     0.4390    -3.4780 ca         1 IC1       0.060600
     10 C9           0.5010     0.4270    -2.0740 ca         1 IC1      -0.078800
     11 C10         -1.3110    -0.4080    -0.4400 cf         1 IC1       0.047800
     12 C1          -0.7150    -0.2740     0.8790 ca         1 IC1      -0.194800
     13 C14         -1.4620     0.3260     1.9130 ca         1 IC1       0.232100
     14 C15         -0.9560     0.4470     3.1960 ca         1 IC1      -0.328000
     15 C16          0.3150    -0.0580     3.4750 ca         1 IC1       0.230100
     16 C17          1.0670    -0.6940     2.4920 ca         1 IC1      -0.328000
     17 C18          0.5390    -0.8100     1.2060 ca         1 IC1       0.232100
     18 O1          -2.6660     0.7860     1.5470 os         1 IC1      -0.305400
     19 O4           0.7370     0.1100     4.7350 os         1 IC1      -0.315900
     20 O6           1.1690    -1.4640     0.2240 os         1 IC1      -0.305400
     21 C11         -3.5120     1.3570     2.5290 c3         1 IC1       0.125200
     22 C12          2.0190    -0.3630     5.1050 c3         1 IC1       0.126700
     23 C13          2.4730    -1.9660     0.4410 c3         1 IC1       0.125200
     24 HN1         -0.9690    -0.2060    -4.8950 hn         1 IC1       0.336500
     25 H41          1.6110     1.0520    -0.3340 ha         1 IC1       0.135000
     26 H51          3.4690     1.9810    -1.6440 ha         1 IC1       0.129000
     27 H61          3.4230     1.9250    -4.1060 ha         1 IC1       0.128000
     28 H71          1.4820     0.9570    -5.3110 ha         1 IC1       0.136000
     29 H101        -2.3460    -0.7370    -0.4650 ha         1 IC1       0.152000
     30 H3'1        -1.5070     0.9360     3.9870 ha         1 IC1       0.149000
     31 H5'1         2.0360    -1.1090     2.7220 ha         1 IC1       0.149000
     32 H111        -4.4360     1.6180     2.0210 h1         1 IC1       0.045033
     33 H112        -3.7370     0.6500     3.3310 h1         1 IC1       0.045033
     34 H113        -3.0780     2.2610     2.9610 h1         1 IC1       0.045033
     35 H121         2.1500    -0.1040     6.1520 h1         1 IC1       0.043367
     36 H122         2.0980    -1.4480     5.0000 h1         1 IC1       0.043367
     37 H123         2.8110     0.1100     4.5210 h1         1 IC1       0.043367
     38 H131         2.7810    -2.4240    -0.4960 h1         1 IC1       0.045033
     39 H132         3.1800    -1.1720     0.6920 h1         1 IC1       0.045033
     40 H133         2.4940    -2.7250     1.2270 h1         1 IC1       0.045033
@<TRIPOS>BOND
     1     1     2 1   
     2     1     9 1   
     3     1    24 1   
     4     2     3 2   
     5     2     4 1   
     6     4    10 1   
     7     4    11 2   
     8     5     6 ar  
     9     5    10 ar  
    10     5    25 1   
    11     6     7 ar  
    12     6    26 1   
    13     7     8 ar  
    14     7    27 1   
    15     8     9 ar  
    16     8    28 1   
    17     9    10 ar  
    18    11    12 1   
    19    11    29 1   
    20    12    13 ar  
    21    12    17 ar  
    22    13    14 ar  
    23    13    18 1   
    24    14    15 ar  
    25    14    30 1   
    26    15    16 ar  
    27    15    19 1   
    28    16    17 ar  
    29    16    31 1   
    30    17    20 1   
    31    18    21 1   
    32    19    22 1   
    33    20    23 1   
    34    21    32 1   
    35    21    33 1   
    36    21    34 1   
    37    22    35 1   
    38    22    36 1   
    39    22    37 1   
    40    23    38 1   
    41    23    39 1   
    42    23    40 1   
@<TRIPOS>SUBSTRUCTURE
     1 IC1         1 TEMP              0 ****  ****    0 ROOT
