@<TRIPOS>MOLECULE
IC2
   47    50     1     0     0
SMALL
No Charge or Current Charge


@<TRIPOS>ATOM
      1 C1         -41.7410     1.5090   -17.2800 ca         1 IC2      -0.132800
      2 C2         -42.0580     2.1770   -16.1170 ca         1 IC2       0.373500
      3 C7         -40.3950     1.0140   -17.1820 cc         1 IC2      -0.166400
      4 C8         -40.1990    -2.3470   -17.8400 c5         1 IC2       0.045400
      5 C9         -39.3830    -3.4430   -17.0760 c          1 IC2       0.566000
      6 C11        -38.1910    -1.4410   -17.0050 c          1 IC2       0.616000
      7 C13        -37.1800    -3.4310   -15.8920 ca         1 IC2       0.008000
      8 C14        -40.3800    -2.7630   -19.3220 c3         1 IC2      -0.094100
      9 C15        -41.5860    -2.1590   -17.1760 c3         1 IC2      -0.094100
     10 O17        -37.2920    -0.6470   -16.7630 o          1 IC2      -0.523000
     11 C19        -36.6880    -4.6900   -16.2870 ca         1 IC2      -0.115000
     12 C20        -35.6700    -5.3210   -15.5520 ca         1 IC2      -0.037500
     13 C21        -35.1240    -4.7080   -14.4100 ca         1 IC2      -0.148000
     14 C22        -35.6170    -3.4470   -14.0090 ca         1 IC2      -0.037500
     15 C6         -42.6630     1.3900   -18.3280 ca         1 IC2      -0.030000
     16 C5         -43.9200     1.9860   -18.1200 ca         1 IC2      -0.193000
     17 C4         -44.1730     2.6530   -16.9030 ca         1 IC2       0.359900
     18 N3         -43.2570     2.7530   -15.9060 nb         1 IC2      -0.680000
     19 N30        -40.9690     2.1370   -15.2740 na         1 IC2      -0.325400
     20 C29        -39.9420     1.4190   -15.9330 cd         1 IC2      -0.126100
     21 C18        -39.6400     0.2120   -18.2100 c3         1 IC2       0.204200
     22 N12        -39.3500    -1.1450   -17.7090 n          1 IC2      -0.424800
     23 N10        -38.2240    -2.7830   -16.6440 n          1 IC2      -0.226000
     24 C23        -36.6350    -2.8170   -14.7460 ca         1 IC2      -0.115000
     25 S24        -33.8230    -5.5960   -13.5310 ss         1 IC2      -0.185000
     26 C25        -33.1870    -4.4890   -12.1860 c3         1 IC2       0.421000
     27 F27        -32.1570    -5.0690   -11.5310 f          1 IC2      -0.097333
     28 F28        -32.7310    -3.3110   -12.6700 f          1 IC2      -0.097333
     29 F26        -34.1340    -4.2150   -11.2610 f          1 IC2      -0.097333
     30 H1         -40.9300    -3.7080   -19.4050 hc         1 IC2       0.055533
     31 H2         -40.9380    -2.0060   -19.8860 hc         1 IC2       0.055533
     32 H3         -39.4110    -2.8980   -19.8160 hc         1 IC2       0.055533
     33 H4         -41.4840    -1.8340   -16.1330 hc         1 IC2       0.055533
     34 H5         -42.1820    -1.4040   -17.7010 hc         1 IC2       0.055533
     35 H6         -42.1610    -3.0930   -17.1790 hc         1 IC2       0.055533
     36 H7         -37.0840    -5.1820   -17.1720 ha         1 IC2       0.132000
     37 H8         -35.3020    -6.2920   -15.8740 ha         1 IC2       0.136000
     38 H9         -35.2320    -2.9380   -13.1320 ha         1 IC2       0.136000
     39 H10        -42.4280     0.8650   -19.2510 ha         1 IC2       0.117000
     40 H11        -44.6900     1.9360   -18.8830 ha         1 IC2       0.123000
     41 H12        -45.1390     3.1220   -16.7210 h4         1 IC2       0.020100
     42 H13        -40.9300     2.5530   -14.3510 hn         1 IC2       0.364000
     43 H14        -38.9720     1.2450   -15.4710 h4         1 IC2       0.216000
     44 H15        -38.7020     0.7250   -18.4580 h1         1 IC2       0.063200
     45 H16        -40.2270     0.1390   -19.1340 h1         1 IC2       0.063200
     46 H17        -37.0060    -1.8510   -14.4130 ha         1 IC2       0.132000
     47 O16        -39.6740    -4.6140   -16.8600 o          1 IC2      -0.486000
@<TRIPOS>BOND
     1     1     2 ar  
     2     1     3 1   
     3     1    15 ar  
     4     2    18 ar  
     5     2    19 1   
     6     3    20 2   
     7     3    21 1   
     8     4     5 1   
     9     4     8 1   
    10     4     9 1   
    11     4    22 1   
    12     5    23 1   
    13     5    47 2   
    14     6    10 2   
    15     6    22 1   
    16     6    23 1   
    17     7    11 ar  
    18     7    23 1   
    19     7    24 ar  
    20     8    30 1   
    21     8    31 1   
    22     8    32 1   
    23     9    33 1   
    24     9    34 1   
    25     9    35 1   
    26    11    12 ar  
    27    11    36 1   
    28    12    13 ar  
    29    12    37 1   
    30    13    14 ar  
    31    13    25 1   
    32    14    24 ar  
    33    14    38 1   
    34    15    16 ar  
    35    15    39 1   
    36    16    17 ar  
    37    16    40 1   
    38    17    18 ar  
    39    17    41 1   
    40    19    20 1   
    41    19    42 1   
    42    20    43 1   
    43    21    22 1   
    44    21    44 1   
    45    21    45 1   
    46    24    46 1   
    47    25    26 1   
    48    26    27 1   
    49    26    28 1   
    50    26    29 1   
@<TRIPOS>SUBSTRUCTURE
     1 IC2         1 TEMP              0 ****  ****    0 ROOT
