@<TRIPOS>MOLECULE
IC2
   47    50     1     0     0
SMALL
abcg2


@<TRIPOS>ATOM
      1 C1         -41.6630     1.6900   -17.3050 ca         1 IC2      -0.132800
      2 C2         -42.2620     2.1030   -16.0920 ca         1 IC2       0.373500
      3 C7         -40.9870     0.4570   -17.0410 cc         1 IC2      -0.166400
      4 C8         -40.2580    -2.8810   -17.7770 c5         1 IC2       0.045400
      5 C9         -39.3470    -3.7820   -16.9580 c          1 IC2       0.566000
      6 C11        -38.5670    -1.6310   -16.7570 c          1 IC2       0.616000
      7 C13        -37.3290    -3.4280   -15.5800 ca         1 IC2       0.008000
      8 C14        -40.1380    -3.2590   -19.2540 c3         1 IC2      -0.094100
      9 C15        -41.6990    -2.9950   -17.2920 c3         1 IC2      -0.094100
     10 O17        -37.8400    -0.7270   -16.4160 o          1 IC2      -0.523000
     11 C19        -36.4510    -4.4040   -16.0340 ca         1 IC2      -0.115000
     12 C20        -35.4380    -4.8560   -15.2040 ca         1 IC2      -0.037500
     13 C21        -35.2920    -4.3110   -13.9340 ca         1 IC2      -0.148000
     14 C22        -36.1720    -3.3340   -13.4810 ca         1 IC2      -0.037500
     15 C6         -41.8520     2.5110   -18.4140 ca         1 IC2      -0.030000
     16 C5         -42.6070     3.6580   -18.2390 ca         1 IC2      -0.193000
     17 C4         -43.1450     3.9530   -16.9810 ca         1 IC2       0.359900
     18 N3         -42.9840     3.1950   -15.9050 nb         1 IC2      -0.680000
     19 N30        -41.9610     1.1710   -15.1500 na         1 IC2      -0.325400
     20 C29        -41.1990     0.1860   -15.7200 cd         1 IC2      -0.126100
     21 C18        -40.1980    -0.3330   -18.0360 c3         1 IC2       0.204200
     22 N12        -39.6810    -1.5720   -17.5090 n          1 IC2      -0.424800
     23 N10        -38.3730    -2.9830   -16.4180 n          1 IC2      -0.226000
     24 C23        -37.1980    -2.8980   -14.3030 ca         1 IC2      -0.115000
     25 S24        -34.0190    -4.9140   -12.8550 ss         1 IC2      -0.185000
     26 C25        -32.6810    -3.8320   -13.3740 c3         1 IC2       0.421000
     27 F27        -31.6040    -4.1490   -12.6590 f          1 IC2      -0.097333
     28 F28        -32.3790    -3.9690   -14.6650 f          1 IC2      -0.097333
     29 F26        -32.9470    -2.5420   -13.1750 f          1 IC2      -0.097333
     30 H1         -40.4750    -4.2830   -19.4080 hc         1 IC2       0.055533
     31 H2         -40.7650    -2.6080   -19.8640 hc         1 IC2       0.055533
     32 H3         -39.1080    -3.1740   -19.6030 hc         1 IC2       0.055533
     33 H4         -41.7860    -2.7670   -16.2310 hc         1 IC2       0.055533
     34 H5         -42.3360    -2.3050   -17.8460 hc         1 IC2       0.055533
     35 H6         -42.0710    -4.0040   -17.4640 hc         1 IC2       0.055533
     36 H7         -36.5490    -4.8080   -17.0330 ha         1 IC2       0.132000
     37 H8         -34.7640    -5.6270   -15.5500 ha         1 IC2       0.136000
     38 H9         -36.0670    -2.9240   -12.4860 ha         1 IC2       0.136000
     39 H10        -41.4280     2.2670   -19.3800 ha         1 IC2       0.117000
     40 H11        -42.7890     4.3330   -19.0630 ha         1 IC2       0.123000
     41 H12        -43.7340     4.8530   -16.8500 h4         1 IC2       0.020100
     42 H13        -42.2570     1.1940   -14.1880 hn         1 IC2       0.364000
     43 H14        -40.8640    -0.6480   -15.1250 h4         1 IC2       0.216000
     44 H15        -39.3690     0.2660   -18.4220 h1         1 IC2       0.063200
     45 H16        -40.8180    -0.5720   -18.9030 h1         1 IC2       0.063200
     46 H17        -37.8950    -2.1530   -13.9440 ha         1 IC2       0.132000
     47 O16        -39.4550    -4.9720   -16.8120 o          1 IC2      -0.486000
@<TRIPOS>BOND
     1     1     2 ar  
     2     1     3 1   
     3     1    15 ar  
     4     2    18 ar  
     5     2    19 1   
     6     3    20 2   
     7     3    21 1   
     8     4     5 1   
     9     4     8 1   
    10     4     9 1   
    11     4    22 1   
    12     5    23 1   
    13     5    47 2   
    14     6    10 2   
    15     6    22 1   
    16     6    23 1   
    17     7    11 ar  
    18     7    23 1   
    19     7    24 ar  
    20     8    30 1   
    21     8    31 1   
    22     8    32 1   
    23     9    33 1   
    24     9    34 1   
    25     9    35 1   
    26    11    12 ar  
    27    11    36 1   
    28    12    13 ar  
    29    12    37 1   
    30    13    14 ar  
    31    13    25 1   
    32    14    24 ar  
    33    14    38 1   
    34    15    16 ar  
    35    15    39 1   
    36    16    17 ar  
    37    16    40 1   
    38    17    18 ar  
    39    17    41 1   
    40    19    20 1   
    41    19    42 1   
    42    20    43 1   
    43    21    22 1   
    44    21    44 1   
    45    21    45 1   
    46    24    46 1   
    47    25    26 1   
    48    26    27 1   
    49    26    28 1   
    50    26    29 1   
@<TRIPOS>SUBSTRUCTURE
     1 IC2         1 TEMP              0 ****  ****    0 ROOT
