@<TRIPOS>MOLECULE
IC6
   46    47     1     0     0
SMALL
bcc


@<TRIPOS>ATOM
      1 C1           0.3710    -0.7200    21.7890 cc         1 IC6       0.391400
      2 C3          -0.2990    -0.3490    19.8060 cd         1 IC6       0.283200
      3 C4          -0.5770    -1.6610    20.0650 cc         1 IC6      -0.270600
      4 C7           0.9640    -4.0740    21.6130 c3         1 IC6      -0.092400
      5 C8           0.8810    -5.4540    22.2570 c3         1 IC6      -0.077400
      6 C09          1.0840    -5.4520    23.7670 c3         1 IC6      -0.071400
      7 C10          1.0610    -6.8650    24.3380 c3         1 IC6      -0.166400
      8 C11          1.2180    -6.8910    25.8470 c          1 IC6       0.675100
      9 C13          2.4180    -8.0460    27.6910 c3         1 IC6      -0.019300
     10 C14          1.1710    -8.1080    28.6220 c          1 IC6       0.949600
     11 C17          3.5860    -7.1630    28.1630 c3         1 IC6      -0.029100
     12 C18          3.4250    -5.6840    27.9600 ca         1 IC6      -0.029300
     13 C19          2.8840    -4.8650    28.9490 ca         1 IC6      -0.114000
     14 C20          2.7430    -3.4990    28.7460 ca         1 IC6      -0.141500
     15 C21          3.1370    -2.9240    27.5440 ca         1 IC6      -0.150000
     16 C22          3.6860    -3.7280    26.5530 ca         1 IC6      -0.141500
     17 C23          3.8340    -5.0920    26.7660 ca         1 IC6      -0.114000
     18 N2           0.2940     0.2310    20.8920 nd         1 IC6      -0.685000
     19 N5          -0.1460    -1.8830    21.3420 na         1 IC6      -0.181900
     20 N12          2.0820    -7.8120    26.3020 ns         1 IC6      -0.537900
     21 O24          0.5820    -6.1330    26.5640 o          1 IC6      -0.580100
     22 H1           0.7870    -0.6260    22.7820 h5         1 IC6       0.057100
     23 H2          -0.5010     0.2030    18.9020 h4         1 IC6       0.028100
     24 H3          -1.0370    -2.4340    19.4710 h4         1 IC6       0.170000
     25 H6           0.9260    -4.1860    20.5260 hc         1 IC6       0.046200
     26 H7           1.9250    -3.6080    21.8490 hc         1 IC6       0.046200
     27 H8          -0.0870    -5.9070    22.0190 hc         1 IC6       0.037200
     28 H9           1.6370    -6.0950    21.7960 hc         1 IC6       0.037200
     29 H10          2.0420    -4.9770    24.0050 hc         1 IC6       0.054200
     30 H11          0.3120    -4.8550    24.2570 hc         1 IC6       0.054200
     31 H12          0.1010    -7.3350    24.0980 hc         1 IC6       0.042700
     32 H13          1.8270    -7.4720    23.8500 hc         1 IC6       0.042700
     33 H14          2.8090    -9.0700    27.7120 h1         1 IC6       0.022700
     34 H15          3.7680    -7.3820    29.2150 hc         1 IC6       0.032200
     35 H16          4.4790    -7.4870    27.6210 hc         1 IC6       0.032200
     36 H17          2.5600    -5.3100    29.8800 ha         1 IC6       0.136000
     37 H18          2.3230    -2.8800    29.5290 ha         1 IC6       0.109500
     38 H19          3.0250    -1.8590    27.3840 ha         1 IC6       0.107000
     39 H20          4.0060    -3.2910    25.6160 ha         1 IC6       0.109500
     40 H21          4.2770    -5.7070    25.9900 ha         1 IC6       0.136000
     41 H22          2.5840    -8.3520    25.6180 hn         1 IC6       0.275500
     42 C6          -0.1650    -3.1490    22.0500 c3         1 IC6       0.037300
     43 O15          1.2950    -7.6170    29.7590 o          1 IC6      -0.822300
     44 H4          -0.1020    -2.9270    23.1160 h1         1 IC6       0.067700
     45 H5          -1.1320    -3.6230    21.8780 h1         1 IC6       0.067700
     46 O16          0.1940    -8.7310    28.1710 o          1 IC6      -0.822300
@<TRIPOS>BOND
     1     1    18 2   
     2     1    19 1   
     3     1    22 1   
     4     2     3 2   
     5     2    18 1   
     6     2    23 1   
     7     3    19 1   
     8     3    24 1   
     9     4     5 1   
    10     4    25 1   
    11     4    26 1   
    12     4    42 1   
    13     5     6 1   
    14     5    27 1   
    15     5    28 1   
    16     6     7 1   
    17     6    29 1   
    18     6    30 1   
    19     7     8 1   
    20     7    31 1   
    21     7    32 1   
    22     8    20 1   
    23     8    21 2   
    24     9    10 1   
    25     9    11 1   
    26     9    20 1   
    27     9    33 1   
    28    10    43 1   
    29    10    46 1   
    30    11    12 1   
    31    11    34 1   
    32    11    35 1   
    33    12    13 ar  
    34    12    17 ar  
    35    13    14 ar  
    36    13    36 1   
    37    14    15 ar  
    38    14    37 1   
    39    15    16 ar  
    40    15    38 1   
    41    16    17 ar  
    42    16    39 1   
    43    17    40 1   
    44    19    42 1   
    45    20    41 1   
    46    42    44 1   
    47    42    45 1   
@<TRIPOS>SUBSTRUCTURE
     1 IC6         1 TEMP              0 ****  ****    0 ROOT
