@<TRIPOS>MOLECULE
IC6
   46    47     1     0     0
SMALL
No Charge or Current Charge


@<TRIPOS>ATOM
      1 C1           1.5800    -1.0200    22.2760 cc         1 IC6       0.391400
      2 C3           0.5960    -0.1040    20.5880 cd         1 IC6       0.217900
      3 C4          -0.0940    -1.2630    20.8340 cc         1 IC6      -0.238000
      4 C7           0.7830    -4.3430    21.8530 c3         1 IC6      -0.092400
      5 C8           0.4030    -5.7000    22.4930 c3         1 IC6      -0.077400
      6 C09          0.9050    -5.8620    23.9440 c3         1 IC6      -0.071400
      7 C10          0.6530    -7.2650    24.5410 c3         1 IC6      -0.166400
      8 C11          1.0170    -7.2810    26.0300 c          1 IC6       0.608100
      9 C13          2.9010    -7.8770    27.6530 c3         1 IC6      -0.019300
     10 C14          1.9260    -8.3210    28.8070 c          1 IC6       0.739000
     11 C17          3.7410    -6.5900    27.9330 c3         1 IC6      -0.029100
     12 C18          3.1480    -5.2840    27.4010 ca         1 IC6      -0.029300
     13 C19          2.1950    -4.5670    28.1510 ca         1 IC6      -0.096000
     14 C20          1.6530    -3.3690    27.6540 ca         1 IC6      -0.123500
     15 C21          2.0650    -2.8730    26.4060 ca         1 IC6      -0.132000
     16 C22          3.0250    -3.5730    25.6580 ca         1 IC6      -0.123500
     17 C23          3.5650    -4.7730    26.1550 ca         1 IC6      -0.096000
     18 N2           1.6340     0.0430    21.4850 nd         1 IC6      -0.685000
     19 N5           0.5350    -1.8460    21.9130 na         1 IC6      -0.160500
     20 N12          2.2410    -7.8540    26.3190 ns         1 IC6      -0.470900
     21 O24          0.2650    -6.8330    26.8840 o          1 IC6      -0.580100
     22 H1           2.2430    -1.2470    23.1040 h5         1 IC6       0.057100
     23 H2           0.4030     0.6300    19.8150 h4         1 IC6       0.028100
     24 H3          -0.9530    -1.6960    20.3370 h4         1 IC6       0.152000
     25 H6           0.4580    -4.3480    20.8050 hc         1 IC6       0.046200
     26 H7           1.8750    -4.2440    21.8420 hc         1 IC6       0.046200
     27 H8          -0.6870    -5.8220    22.4680 hc         1 IC6       0.037200
     28 H9           0.8240    -6.5050    21.8780 hc         1 IC6       0.037200
     29 H10          1.9820    -5.6570    23.9730 hc         1 IC6       0.054200
     30 H11          0.4190    -5.1160    24.5840 hc         1 IC6       0.054200
     31 H12         -0.4110    -7.5070    24.4310 hc         1 IC6       0.042700
     32 H13          1.2670    -7.9860    23.9890 hc         1 IC6       0.042700
     33 H14          3.6320    -8.6940    27.6020 h1         1 IC6       0.022700
     34 H15          3.9620    -6.5060    29.0040 hc         1 IC6       0.032200
     35 H16          4.7210    -6.7370    27.4620 hc         1 IC6       0.032200
     36 H17          1.8680    -4.9440    29.1170 ha         1 IC6       0.118000
     37 H18          0.9120    -2.8260    28.2360 ha         1 IC6       0.091500
     38 H19          1.6450    -1.9470    26.0220 ha         1 IC6       0.089000
     39 H20          3.3480    -3.1910    24.6930 ha         1 IC6       0.091500
     40 H21          4.3040    -5.3110    25.5650 ha         1 IC6       0.118000
     41 H22          2.7600    -8.2140    25.5280 hn         1 IC6       0.275500
     42 C6           0.1670    -3.1140    22.5590 c3         1 IC6       0.066600
     43 O15          1.7550    -7.5910    29.7760 o          1 IC6      -0.717000
     44 H4           0.5030    -3.0760    23.6030 h1         1 IC6       0.067700
     45 H5          -0.9270    -3.2020    22.5610 h1         1 IC6       0.067700
     46 O16          1.4450    -9.4460    28.7380 o          1 IC6      -0.717000
@<TRIPOS>BOND
     1     1    18 2   
     2     1    19 1   
     3     1    22 1   
     4     2     3 2   
     5     2    18 1   
     6     2    23 1   
     7     3    19 1   
     8     3    24 1   
     9     4     5 1   
    10     4    25 1   
    11     4    26 1   
    12     4    42 1   
    13     5     6 1   
    14     5    27 1   
    15     5    28 1   
    16     6     7 1   
    17     6    29 1   
    18     6    30 1   
    19     7     8 1   
    20     7    31 1   
    21     7    32 1   
    22     8    20 1   
    23     8    21 2   
    24     9    10 1   
    25     9    11 1   
    26     9    20 1   
    27     9    33 1   
    28    10    43 1   
    29    10    46 1   
    30    11    12 1   
    31    11    34 1   
    32    11    35 1   
    33    12    13 ar  
    34    12    17 ar  
    35    13    14 ar  
    36    13    36 1   
    37    14    15 ar  
    38    14    37 1   
    39    15    16 ar  
    40    15    38 1   
    41    16    17 ar  
    42    16    39 1   
    43    17    40 1   
    44    19    42 1   
    45    20    41 1   
    46    42    44 1   
    47    42    45 1   
@<TRIPOS>SUBSTRUCTURE
     1 IC6         1 TEMP              0 ****  ****    0 ROOT
