@<TRIPOS>MOLECULE
IC7
   59    64     1     0     0
SMALL
No Charge or Current Charge


@<TRIPOS>ATOM
      1 CBA         25.6640    10.2120    27.9420 ca         1 IC7      -0.115500
      2 CBB         26.4890     9.2310    27.3650 ca         1 IC7      -0.044000
      3 CBC         26.0840     8.5580    26.1900 ca         1 IC7      -0.191300
      4 CBK         26.9870     7.4950    25.5530 c3         1 IC7       0.346300
      5 FBM         27.7410     6.8450    26.4680 f          1 IC7      -0.110667
      6 FBJ         26.2800     6.5480    24.8940 f          1 IC7      -0.110667
      7 FBL         27.8370     8.0460    24.6590 f          1 IC7      -0.110667
      8 CBD         24.8500     8.9020    25.5940 ca         1 IC7      -0.044000
      9 CBE         24.0280     9.8840    26.1740 ca         1 IC7      -0.115500
     10 CAZ         24.4300    10.5270    27.3570 ca         1 IC7       0.162100
     11 OAK         23.6480    11.4990    27.9230 os         1 IC7      -0.467800
     12 SAH         22.2150    11.0630    28.6110 s6         1 IC7       1.345700
     13 OAI         22.2350     9.6160    28.8650 o          1 IC7      -0.534000
     14 OAJ         21.1420    11.6280    27.7820 o          1 IC7      -0.534000
     15 CAB         22.2510    11.9770    30.2460 c5         1 IC7      -0.344700
     16 CAC         22.6630    13.4960    30.0750 c5         1 IC7      -0.061400
     17 CAD         24.0010    13.5150    30.8910 c5         1 IC7       0.180500
     18 CAE         23.5630    13.3530    32.3560 ce         1 IC7      -0.049400
     19 CAS         23.6030    14.4560    33.3570 ca         1 IC7      -0.085800
     20 CAT         23.2540    15.7700    32.9840 ca         1 IC7      -0.054000
     21 CAU         23.3010    16.8100    33.9280 ca         1 IC7      -0.173500
     22 CAV         23.7020    16.5480    35.2460 ca         1 IC7       0.147100
     23 OAY         23.7450    17.5640    36.1520 oh         1 IC7      -0.533100
     24 CAW         24.0620    15.2450    35.6230 ca         1 IC7      -0.173500
     25 CAX         24.0160    14.2030    34.6800 ca         1 IC7      -0.054000
     26 OAG         24.5250    12.2190    30.6120 os         1 IC7      -0.423000
     27 CAA         23.4370    11.4370    31.0920 c5         1 IC7       0.216500
     28 CAF         23.2070    12.0380    32.4970 cf         1 IC7      -0.091400
     29 CAL         22.6100    11.2850    33.6180 ca         1 IC7      -0.041800
     30 CAQ         22.8750     9.9110    33.7850 ca         1 IC7      -0.081000
     31 CAP         22.2970     9.1970    34.8490 ca         1 IC7      -0.111000
     32 CAM         21.7430    11.9250    34.5250 ca         1 IC7      -0.081000
     33 CAN         21.1640    11.2130    35.5890 ca         1 IC7      -0.111000
     34 CAO         21.4390     9.8410    35.7630 ca         1 IC7       0.023800
     35 NAR         20.8690     9.1280    36.8260 na         1 IC7       0.018500
     36 NBI         20.3900     7.8730    36.6630 nc         1 IC7      -0.527800
     37 CBH         19.9180     7.6240    37.8820 cd         1 IC7       0.527900
     38 NBG         20.0730     8.6740    38.7860 nd         1 IC7      -0.696000
     39 CBF         20.6750     9.6250    38.0880 cc         1 IC7       0.431400
     40 H1          25.9830    10.7290    28.8430 ha         1 IC7       0.142500
     41 H2          27.4450     9.0010    27.8330 ha         1 IC7       0.138500
     42 H3          24.5250     8.4140    24.6760 ha         1 IC7       0.138500
     43 H4          23.0850    10.1460    25.7010 ha         1 IC7       0.142500
     44 H5          21.2750    11.8220    30.7180 h1         1 IC7       0.116700
     45 H6          22.8290    13.7920    29.0320 hc         1 IC7       0.073700
     46 H7          21.9150    14.1830    30.4890 hc         1 IC7       0.073700
     47 H8          24.7070    14.3290    30.6740 h1         1 IC7       0.108700
     48 H10         22.9390    15.9860    31.9660 ha         1 IC7       0.119000
     49 H11         23.0260    17.8200    33.6360 ha         1 IC7       0.126000
     50 H12         24.0470    17.2010    37.0120 ho         1 IC7       0.467000
     51 H13         24.3810    15.0320    36.6400 ha         1 IC7       0.126000
     52 H14         24.3070    13.1980    34.9760 ha         1 IC7       0.119000
     53 H15         23.6370    10.3550    31.0510 h1         1 IC7       0.116700
     54 H17         23.5440     9.3920    33.1030 ha         1 IC7       0.126500
     55 H18         22.5240     8.1390    34.9650 ha         1 IC7       0.136000
     56 H19         21.5020    12.9770    34.3970 ha         1 IC7       0.126500
     57 H20         20.4910    11.7320    36.2670 ha         1 IC7       0.136000
     58 H21         19.4450     6.6910    38.1670 h5         1 IC7       0.068100
     59 H22         20.9810    10.6110    38.4150 h5         1 IC7       0.066100
@<TRIPOS>BOND
     1     1     2 ar  
     2     1    10 ar  
     3     1    40 1   
     4     2     3 ar  
     5     2    41 1   
     6     3     4 1   
     7     3     8 ar  
     8     4     5 1   
     9     4     6 1   
    10     4     7 1   
    11     8     9 ar  
    12     8    42 1   
    13     9    10 ar  
    14     9    43 1   
    15    10    11 1   
    16    11    12 1   
    17    12    13 2   
    18    12    14 2   
    19    12    15 1   
    20    15    16 1   
    21    15    27 1   
    22    15    44 1   
    23    16    17 1   
    24    16    45 1   
    25    16    46 1   
    26    17    18 1   
    27    17    26 1   
    28    17    47 1   
    29    18    19 1   
    30    18    28 2   
    31    19    20 ar  
    32    19    25 ar  
    33    20    21 ar  
    34    20    48 1   
    35    21    22 ar  
    36    21    49 1   
    37    22    23 1   
    38    22    24 ar  
    39    23    50 1   
    40    24    25 ar  
    41    24    51 1   
    42    25    52 1   
    43    26    27 1   
    44    27    28 1   
    45    27    53 1   
    46    28    29 1   
    47    29    30 ar  
    48    29    32 ar  
    49    30    31 ar  
    50    30    54 1   
    51    31    34 ar  
    52    31    55 1   
    53    32    33 ar  
    54    32    56 1   
    55    33    34 ar  
    56    33    57 1   
    57    34    35 1   
    58    35    36 1   
    59    35    39 1   
    60    36    37 2   
    61    37    38 1   
    62    37    58 1   
    63    38    39 2   
    64    39    59 1   
@<TRIPOS>SUBSTRUCTURE
     1 IC7         1 TEMP              0 ****  ****    0 ROOT
