@<TRIPOS>MOLECULE
IC7
   59    64     1     0     0
SMALL
abcg2


@<TRIPOS>ATOM
      1 CBA         25.4550     9.6720    27.9590 ca         1 IC7      -0.115500
      2 CBB         26.2440     8.8470    27.1720 ca         1 IC7      -0.044000
      3 CBC         25.9540     8.6940    25.8160 ca         1 IC7      -0.191300
      4 CBK         26.8430     7.8140    24.9860 c3         1 IC7       0.346300
      5 FBM         26.9670     6.5730    25.5140 f          1 IC7      -0.110667
      6 FBJ         26.3970     7.6590    23.7240 f          1 IC7      -0.110667
      7 FBL         28.1020     8.3100    24.8930 f          1 IC7      -0.110667
      8 CBD         24.8780     9.3610    25.2430 ca         1 IC7      -0.044000
      9 CBE         24.0830    10.1890    26.0270 ca         1 IC7      -0.115500
     10 CAZ         24.3880    10.3320    27.3690 ca         1 IC7       0.162100
     11 OAK         23.6430    11.2350    28.1340 os         1 IC7      -0.467800
     12 SAH         22.3480    10.7490    28.9710 s6         1 IC7       1.345700
     13 OAI         22.4940     9.3500    29.2790 o          1 IC7      -0.534000
     14 OAJ         21.1780    11.1720    28.2480 o          1 IC7      -0.534000
     15 CAB         22.5210    11.7370    30.4480 c5         1 IC7      -0.344700
     16 CAC         22.8300    13.2320    30.1870 c5         1 IC7      -0.061400
     17 CAD         24.1270    13.3970    31.0360 c5         1 IC7       0.180500
     18 CAE         23.7280    13.2920    32.5070 ce         1 IC7      -0.049400
     19 CAS         23.6650    14.4380    33.4030 ca         1 IC7      -0.085800
     20 CAT         23.4660    15.7320    32.9000 ca         1 IC7      -0.054000
     21 CAU         23.4210    16.8350    33.7380 ca         1 IC7      -0.173500
     22 CAV         23.5930    16.6710    35.1110 ca         1 IC7       0.147100
     23 OAY         23.5500    17.7830    35.8960 oh         1 IC7      -0.533100
     24 CAW         23.8120    15.3940    35.6320 ca         1 IC7      -0.173500
     25 CAX         23.8470    14.2990    34.7870 ca         1 IC7      -0.054000
     26 OAG         24.7790    12.1350    30.8130 os         1 IC7      -0.423000
     27 CAA         23.7320    11.3240    31.3460 c5         1 IC7       0.216500
     28 CAF         23.4370    11.9860    32.6910 cf         1 IC7      -0.091400
     29 CAL         22.7580    11.2880    33.7820 ca         1 IC7      -0.041800
     30 CAQ         23.1190     9.9830    34.1390 ca         1 IC7      -0.081000
     31 CAP         22.4700     9.3120    35.1650 ca         1 IC7      -0.111000
     32 CAM         21.6900    11.8870    34.4630 ca         1 IC7      -0.081000
     33 CAN         21.0230    11.2220    35.4760 ca         1 IC7      -0.111000
     34 CAO         21.4240     9.9370    35.8360 ca         1 IC7       0.023800
     35 NAR         20.7590     9.2640    36.8910 na         1 IC7       0.018500
     36 NBI         20.6880     7.9050    36.9450 nc         1 IC7      -0.527800
     37 CBH         20.0100     7.6900    38.0550 cd         1 IC7       0.527900
     38 NBG         19.6440     8.8190    38.7220 nd         1 IC7      -0.696000
     39 CBF         20.1300     9.7860    37.9660 cc         1 IC7       0.431400
     40 H1          25.6620     9.8110    29.0110 ha         1 IC7       0.142500
     41 H2          27.0840     8.3270    27.6140 ha         1 IC7       0.138500
     42 H3          24.6550     9.2430    24.1920 ha         1 IC7       0.138500
     43 H4          23.2450    10.7240    25.6020 ha         1 IC7       0.142500
     44 H5          21.5670    11.5650    30.9470 h1         1 IC7       0.116700
     45 H6          23.0400    13.4320    29.1390 hc         1 IC7       0.073700
     46 H7          22.0220    13.8800    30.5170 hc         1 IC7       0.073700
     47 H8          24.7700    14.2230    30.7520 h1         1 IC7       0.108700
     48 H10         23.3330    15.8820    31.8370 ha         1 IC7       0.119000
     49 H11         23.2590    17.8280    33.3380 ha         1 IC7       0.126000
     50 H12         23.6880    17.5430    36.8230 ho         1 IC7       0.467000
     51 H13         23.9650    15.2670    36.6970 ha         1 IC7       0.126000
     52 H14         24.0350    13.3200    35.2060 ha         1 IC7       0.119000
     53 H15         23.9890    10.2710    31.3410 h1         1 IC7       0.116700
     54 H17         23.9340     9.4920    33.6240 ha         1 IC7       0.126500
     55 H18         22.7720     8.3150    35.4470 ha         1 IC7       0.136000
     56 H19         21.3670    12.8780    34.1800 ha         1 IC7       0.126500
     57 H20         20.1800    11.6900    35.9660 ha         1 IC7       0.136000
     58 H21         19.7710     6.6930    38.3920 h5         1 IC7       0.068100
     59 H22         20.0690    10.8440    38.1580 h5         1 IC7       0.066100
@<TRIPOS>BOND
     1     1     2 ar  
     2     1    10 ar  
     3     1    40 1   
     4     2     3 ar  
     5     2    41 1   
     6     3     4 1   
     7     3     8 ar  
     8     4     5 1   
     9     4     6 1   
    10     4     7 1   
    11     8     9 ar  
    12     8    42 1   
    13     9    10 ar  
    14     9    43 1   
    15    10    11 1   
    16    11    12 1   
    17    12    13 2   
    18    12    14 2   
    19    12    15 1   
    20    15    16 1   
    21    15    27 1   
    22    15    44 1   
    23    16    17 1   
    24    16    45 1   
    25    16    46 1   
    26    17    18 1   
    27    17    26 1   
    28    17    47 1   
    29    18    19 1   
    30    18    28 2   
    31    19    20 ar  
    32    19    25 ar  
    33    20    21 ar  
    34    20    48 1   
    35    21    22 ar  
    36    21    49 1   
    37    22    23 1   
    38    22    24 ar  
    39    23    50 1   
    40    24    25 ar  
    41    24    51 1   
    42    25    52 1   
    43    26    27 1   
    44    27    28 1   
    45    27    53 1   
    46    28    29 1   
    47    29    30 ar  
    48    29    32 ar  
    49    30    31 ar  
    50    30    54 1   
    51    31    34 ar  
    52    31    55 1   
    53    32    33 ar  
    54    32    56 1   
    55    33    34 ar  
    56    33    57 1   
    57    34    35 1   
    58    35    36 1   
    59    35    39 1   
    60    36    37 2   
    61    37    38 1   
    62    37    58 1   
    63    38    39 2   
    64    39    59 1   
@<TRIPOS>SUBSTRUCTURE
     1 IC7         1 TEMP              0 ****  ****    0 ROOT
