@<TRIPOS>MOLECULE
IC8
   49    53     1     0     0
SMALL
bcc


@<TRIPOS>ATOM
      1 CAT         -1.4490     1.6550    -2.2490 c3         1 IC8      -0.060800
      2 CAP         -2.1070     2.2960    -1.0630 ca         1 IC8      -0.047300
      3 CAQ         -2.6170     3.5900    -1.1290 ca         1 IC8      -0.127000
      4 CAR         -3.2190     4.1870    -0.0310 ca         1 IC8      -0.113000
      5 CAJ         -3.3250     3.4990     1.1680 ca         1 IC8      -0.130000
      6 CAI         -2.8240     2.2090     1.2580 ca         1 IC8      -0.114000
      7 CAH         -2.2230     1.6270     0.1550 ca         1 IC8       0.011600
      8 NAG         -1.6920     0.3030     0.2780 n          1 IC8      -0.328500
      9 CAF         -2.5480    -0.7580    -0.0320 c          1 IC8       0.724100
     10 OAB         -3.6840    -0.5140    -0.3830 o          1 IC8      -0.593500
     11 CAE         -1.9510    -2.0830     0.1040 ca         1 IC8      -0.194600
     12 CAD         -2.6740    -3.2660    -0.1740 ca         1 IC8       0.001700
     13 CAA         -4.1070    -3.2870    -0.6200 c3         1 IC8      -0.050800
     14 CAC         -2.0170    -4.4750    -0.0200 ca         1 IC8      -0.159000
     15 CAK         -0.6880    -4.5450     0.3950 ca         1 IC8      -0.088000
     16 CAL          0.0170    -3.3970     0.6660 ca         1 IC8      -0.125000
     17 CAM         -0.6080    -2.1550     0.5220 ca         1 IC8       0.190400
     18 NAN          0.1420    -1.0390     0.8020 nc         1 IC8      -0.623100
     19 CAO         -0.3960     0.1100     0.6720 cd         1 IC8       0.488900
     20 CAS          0.4280     1.3430     0.9690 c3         1 IC8       0.020000
     21 N9           1.8180     1.0210     1.0340 na         1 IC8      -0.241000
     22 C8           2.5670     0.7220     2.1360 cc         1 IC8       0.424700
     23 N7           3.7790     0.3540     1.8580 nd         1 IC8      -0.548100
     24 C5           3.8300     0.3820     0.4860 ca         1 IC8      -0.225200
     25 C4           2.6150     0.7810    -0.0450 ca         1 IC8       0.462800
     26 N3           2.3040     0.9010    -1.3300 nb         1 IC8      -0.752000
     27 C2           3.3270     0.5890    -2.1060 ca         1 IC8       0.709900
     28 N1           4.5450     0.1960    -1.7450 nb         1 IC8      -0.827000
     29 C6           4.8340     0.0830    -0.4480 ca         1 IC8       0.779200
     30 N6           6.0630    -0.3100    -0.0870 nv         1 IC8      -0.959500
     31 HAT1        -0.4110     1.3750    -2.0490 hc         1 IC8       0.055700
     32 HAT2        -1.9760     0.7520    -2.5580 hc         1 IC8       0.055700
     33 HAT3        -1.4410     2.3360    -3.0980 hc         1 IC8       0.055700
     34 HAQ         -2.5410     4.1400    -2.0580 ha         1 IC8       0.137000
     35 HAR         -3.6040     5.1940    -0.1150 ha         1 IC8       0.135000
     36 HAJ         -3.7930     3.9580     2.0270 ha         1 IC8       0.137000
     37 HAI         -2.9010     1.6550     2.1840 ha         1 IC8       0.140000
     38 HAA1        -4.2560    -2.7480    -1.5540 hc         1 IC8       0.053367
     39 HAA2        -4.4290    -4.3160    -0.7740 hc         1 IC8       0.053367
     40 HAA3        -4.7710    -2.8360     0.1160 hc         1 IC8       0.053367
     41 HAC         -2.5500    -5.3940    -0.2280 ha         1 IC8       0.134000
     42 HAK         -0.2140    -5.5120     0.5040 ha         1 IC8       0.136000
     43 HAL          1.0500    -3.4250     0.9870 ha         1 IC8       0.154000
     44 HAS1         0.2810     2.1090     0.2060 h1         1 IC8       0.089700
     45 HAS2         0.1120     1.7890     1.9140 h1         1 IC8       0.089700
     46 H8           2.1560     0.8140     3.1310 h5         1 IC8       0.065800
     47 H2           3.1570     0.6570    -3.1740 h5         1 IC8       0.044100
     48 H61N         6.3030    -0.4270     0.8790 hn         1 IC8       0.451800
     49 H62N         6.7360    -0.5500    -0.7920 hn         1 IC8       0.451800
@<TRIPOS>BOND
     1     1     2 1   
     2     1    31 1   
     3     1    32 1   
     4     1    33 1   
     5     2     3 ar  
     6     2     7 ar  
     7     3     4 ar  
     8     3    34 1   
     9     4     5 ar  
    10     4    35 1   
    11     5     6 ar  
    12     5    36 1   
    13     6     7 ar  
    14     6    37 1   
    15     7     8 1   
    16     8     9 1   
    17     8    19 1   
    18     9    10 2   
    19     9    11 1   
    20    11    12 ar  
    21    11    17 ar  
    22    12    13 1   
    23    12    14 ar  
    24    13    38 1   
    25    13    39 1   
    26    13    40 1   
    27    14    15 ar  
    28    14    41 1   
    29    15    16 ar  
    30    15    42 1   
    31    16    17 ar  
    32    16    43 1   
    33    17    18 1   
    34    18    19 2   
    35    19    20 1   
    36    20    21 1   
    37    20    44 1   
    38    20    45 1   
    39    21    22 1   
    40    21    25 1   
    41    22    23 2   
    42    22    46 1   
    43    23    24 1   
    44    24    25 ar  
    45    24    29 ar  
    46    25    26 ar  
    47    26    27 ar  
    48    27    28 ar  
    49    27    47 1   
    50    28    29 ar  
    51    29    30 1   
    52    30    48 1   
    53    30    49 1   
@<TRIPOS>SUBSTRUCTURE
     1 IC8         1 TEMP              0 ****  ****    0 ROOT
