@<TRIPOS>MOLECULE
IC8
   49    53     1     0     0
SMALL
No Charge or Current Charge


@<TRIPOS>ATOM
      1 CAT          0.0210     0.1120    -2.1610 c3         1 IC8      -0.060800
      2 CAP         -0.6060     1.2800    -1.4050 ca         1 IC8      -0.047300
      3 CAQ         -0.4760     2.5810    -1.9300 ca         1 IC8      -0.109000
      4 CAR         -1.0590     3.6780    -1.2730 ca         1 IC8      -0.095000
      5 CAJ         -1.7850     3.4810    -0.0880 ca         1 IC8      -0.112000
      6 CAI         -1.9240     2.1880     0.4420 ca         1 IC8      -0.096000
      7 CAH         -1.3240     1.0860    -0.2000 ca         1 IC8       0.011600
      8 NAG         -1.5060    -0.2290     0.3520 n          1 IC8      -0.261500
      9 CAF         -2.4530    -1.1310    -0.1100 c          1 IC8       0.581600
     10 OAB         -3.2290    -0.8160    -1.0030 o          1 IC8      -0.518000
     11 CAE         -2.4390    -2.4730     0.5540 ca         1 IC8      -0.194600
     12 CAD         -3.3400    -3.5290     0.2150 ca         1 IC8       0.001700
     13 CAA         -4.4200    -3.4030    -0.8590 c3         1 IC8      -0.050800
     14 CAC         -3.2490    -4.7590     0.8930 ca         1 IC8      -0.141000
     15 CAK         -2.2880    -4.9560     1.8890 ca         1 IC8      -0.070000
     16 CAL         -1.4090    -3.9180     2.2150 ca         1 IC8      -0.107000
     17 CAM         -1.4700    -2.6760     1.5620 ca         1 IC8       0.190400
     18 NAN         -0.5320    -1.7250     1.9850 nc         1 IC8      -0.623100
     19 CAO         -0.5970    -0.5440     1.3640 cd         1 IC8       0.488900
     20 CAS          0.4640     0.4310     1.8650 c3         1 IC8       0.049300
     21 N9           1.6690     0.5400     1.0130 na         1 IC8      -0.270300
     22 C8           2.4730    -0.4910     0.5210 cc         1 IC8       0.424700
     23 N7           3.4180    -0.0050    -0.3070 nd         1 IC8      -0.548100
     24 C5           3.1770     1.3760    -0.3010 ca         1 IC8      -0.094600
     25 C4           2.1220     1.7240     0.5060 ca         1 IC8       0.134500
     26 N3           1.7240     3.0010     0.6660 nb         1 IC8      -0.226000
     27 C2           2.4230     3.9230    -0.0370 ca         1 IC8       0.183900
     28 N1           3.4710     3.6890    -0.8650 nb         1 IC8      -0.301000
     29 C6           3.8490     2.4070    -0.9900 ca         1 IC8       0.450900
     30 N6           4.9020     2.1710    -1.8170 nv         1 IC8      -1.069900
     31 HAT1         0.4030    -0.6610    -1.4850 hc         1 IC8       0.055700
     32 HAT2        -0.7140    -0.3600    -2.8240 hc         1 IC8       0.055700
     33 HAT3         0.8640     0.4410    -2.7790 hc         1 IC8       0.055700
     34 HAQ          0.0760     2.7450    -2.8530 ha         1 IC8       0.119000
     35 HAR         -0.9520     4.6790    -1.6850 ha         1 IC8       0.117000
     36 HAJ         -2.2440     4.3290     0.4160 ha         1 IC8       0.119000
     37 HAI         -2.4980     2.0400     1.3540 ha         1 IC8       0.122000
     38 HAA1        -3.9800    -3.1970    -1.8420 hc         1 IC8       0.053367
     39 HAA2        -5.0070    -4.3240    -0.9600 hc         1 IC8       0.053367
     40 HAA3        -5.1270    -2.6010    -0.6190 hc         1 IC8       0.053367
     41 HAC         -3.9270    -5.5730     0.6470 ha         1 IC8       0.116000
     42 HAK         -2.2240    -5.9110     2.4070 ha         1 IC8       0.118000
     43 HAL         -0.6650    -4.0790     2.9910 ha         1 IC8       0.136000
     44 HAS1         0.0170     1.4210     2.0040 h1         1 IC8       0.089700
     45 HAS2         0.7920     0.1110     2.8620 h1         1 IC8       0.089700
     46 H8           2.3110    -1.5320     0.7770 h5         1 IC8       0.065800
     47 H2           2.1110     4.9600     0.0740 h5         1 IC8       0.044100
     48 H61N         5.0580     1.2030    -2.0900 hn         1 IC8       0.507000
     49 H62N         5.1470     2.8830    -2.5000 hn         1 IC8       0.507000
@<TRIPOS>BOND
     1     1     2 1   
     2     1    31 1   
     3     1    32 1   
     4     1    33 1   
     5     2     3 ar  
     6     2     7 ar  
     7     3     4 ar  
     8     3    34 1   
     9     4     5 ar  
    10     4    35 1   
    11     5     6 ar  
    12     5    36 1   
    13     6     7 ar  
    14     6    37 1   
    15     7     8 1   
    16     8     9 1   
    17     8    19 1   
    18     9    10 2   
    19     9    11 1   
    20    11    12 ar  
    21    11    17 ar  
    22    12    13 1   
    23    12    14 ar  
    24    13    38 1   
    25    13    39 1   
    26    13    40 1   
    27    14    15 ar  
    28    14    41 1   
    29    15    16 ar  
    30    15    42 1   
    31    16    17 ar  
    32    16    43 1   
    33    17    18 1   
    34    18    19 2   
    35    19    20 1   
    36    20    21 1   
    37    20    44 1   
    38    20    45 1   
    39    21    22 1   
    40    21    25 1   
    41    22    23 2   
    42    22    46 1   
    43    23    24 1   
    44    24    25 ar  
    45    24    29 ar  
    46    25    26 ar  
    47    26    27 ar  
    48    27    28 ar  
    49    27    47 1   
    50    28    29 ar  
    51    29    30 1   
    52    30    48 1   
    53    30    49 1   
@<TRIPOS>SUBSTRUCTURE
     1 IC8         1 TEMP              0 ****  ****    0 ROOT
