@<TRIPOS>MOLECULE
IC9
   29    29     1     0     0
SMALL
abcg2


@<TRIPOS>ATOM
      1 O1          -1.3370    -0.5350     1.3250 o          1 IC9      -0.513000
      2 S           -1.4340     0.5530     0.3490 s6         1 IC9       1.026000
      3 O2          -1.0240     1.8930     0.7780 o          1 IC9      -0.513000
      4 C3          -0.4710     0.0870    -1.1060 c3         1 IC9      -0.210100
      5 C4           0.9650    -0.0350    -0.7120 ca         1 IC9      -0.094300
      6 C9           1.4770    -1.2530    -0.2720 ca         1 IC9      -0.078500
      7 C8           2.8030    -1.3610     0.1140 ca         1 IC9      -0.111500
      8 C7           3.6540    -0.2570     0.0830 ca         1 IC9      -0.061300
      9 C7M          5.0970    -0.3870     0.4730 c3         1 IC9      -0.048800
     10 C6           3.1310     0.9600    -0.3480 ca         1 IC9      -0.111500
     11 C5           1.8050     1.0730    -0.7360 ca         1 IC9      -0.078500
     12 C2          -3.1350     0.6490    -0.2790 c3         1 IC9      -0.012200
     13 N           -3.5410    -0.6140    -0.7910 n7         1 IC9      -0.871400
     14 C1          -4.3430    -1.4300     0.0980 c3         1 IC9       0.152100
     15 H1          -0.8910    -0.8500    -1.4710 h1         1 IC9       0.100700
     16 H2          -0.6340     0.8650    -1.8540 h1         1 IC9       0.100700
     17 H3           0.8370    -2.1260    -0.2430 ha         1 IC9       0.120000
     18 H4           3.1830    -2.3190     0.4470 ha         1 IC9       0.114000
     19 H5           5.6910    -0.7770    -0.3570 hc         1 IC9       0.043700
     20 H6           5.5240     0.5750     0.7530 hc         1 IC9       0.043700
     21 H7           5.2260    -1.0730     1.3100 hc         1 IC9       0.043700
     22 H8           3.7710     1.8350    -0.3770 ha         1 IC9       0.114000
     23 H9           1.4250     2.0310    -1.0700 ha         1 IC9       0.120000
     24 H10         -3.7250     1.0260     0.5670 h2         1 IC9       0.084700
     25 H11         -3.1200     1.4160    -1.0530 h2         1 IC9       0.084700
     26 H12         -3.9760    -0.5090    -1.6940 hn         1 IC9       0.429000
     27 H14         -3.7780    -1.6810     0.9930 h1         1 IC9       0.043367
     28 H15         -5.2770    -0.9480     0.4120 h1         1 IC9       0.043367
     29 H16         -4.5960    -2.3630    -0.4030 h1         1 IC9       0.043367
@<TRIPOS>BOND
     1     1     2 2   
     2     2     3 2   
     3     2     4 1   
     4     2    12 1   
     5     4     5 1   
     6     4    15 1   
     7     4    16 1   
     8     5     6 ar  
     9     5    11 ar  
    10     6     7 ar  
    11     6    17 1   
    12     7     8 ar  
    13     7    18 1   
    14     8     9 1   
    15     8    10 ar  
    16     9    19 1   
    17     9    20 1   
    18     9    21 1   
    19    10    11 ar  
    20    10    22 1   
    21    11    23 1   
    22    12    13 1   
    23    12    24 1   
    24    12    25 1   
    25    13    14 1   
    26    13    26 1   
    27    14    27 1   
    28    14    28 1   
    29    14    29 1   
@<TRIPOS>SUBSTRUCTURE
     1 IC9         1 TEMP              0 ****  ****    0 ROOT
