@<TRIPOS>MOLECULE
IC9
   29    29     1     0     0
SMALL
No Charge or Current Charge


@<TRIPOS>ATOM
      1 O1          -1.5560    -0.2550     1.4970 o          1 IC9      -0.513000
      2 S           -1.5660     0.7340     0.4080 s6         1 IC9       1.026000
      3 O2          -1.1410     2.1130     0.6970 o          1 IC9      -0.513000
      4 C3          -0.5250     0.1010    -0.9340 c3         1 IC9      -0.210100
      5 C4           0.9510    -0.0410    -0.5780 ca         1 IC9      -0.094300
      6 C9           1.4370    -1.2430    -0.0320 ca         1 IC9      -0.078500
      7 C8           2.7980    -1.3750     0.2950 ca         1 IC9      -0.111500
      8 C7           3.6870    -0.3050     0.0810 ca         1 IC9      -0.061300
      9 C7M          5.1600    -0.4490     0.4320 c3         1 IC9      -0.048800
     10 C6           3.2020     0.8960    -0.4690 ca         1 IC9      -0.111500
     11 C5           1.8410     1.0280    -0.7960 ca         1 IC9      -0.078500
     12 C2          -3.2780     0.8040    -0.3150 c3         1 IC9      -0.012200
     13 N           -3.8160    -0.4330    -1.0110 n7         1 IC9      -0.871400
     14 C1          -4.0360    -1.6230    -0.1570 c3         1 IC9       0.152100
     15 H1          -0.9510    -0.8690    -1.2120 h1         1 IC9       0.100700
     16 H2          -0.6570     0.7930    -1.7730 h1         1 IC9       0.100700
     17 H3           0.7610    -2.0780     0.1410 ha         1 IC9       0.120000
     18 H4           3.1610    -2.3100     0.7160 ha         1 IC9       0.114000
     19 H5           5.7290    -0.8370    -0.4220 hc         1 IC9       0.043700
     20 H6           5.5990     0.5150     0.7160 hc         1 IC9       0.043700
     21 H7           5.3060    -1.1370     1.2730 hc         1 IC9       0.043700
     22 H8           3.8780     1.7290    -0.6440 ha         1 IC9       0.114000
     23 H9           1.4790     1.9630    -1.2190 ha         1 IC9       0.120000
     24 H10         -3.9220     1.1080     0.5190 h2         1 IC9       0.084700
     25 H11         -3.2220     1.6400    -1.0220 h2         1 IC9       0.084700
     26 H12         -4.7200    -0.1960    -1.4490 hn         1 IC9       0.429000
     27 H14         -3.0950    -1.9910     0.2710 h1         1 IC9       0.043367
     28 H15         -4.7250    -1.3950     0.6680 h1         1 IC9       0.043367
     29 H16         -4.4740    -2.4420    -0.7440 h1         1 IC9       0.043367
@<TRIPOS>BOND
     1     1     2 2   
     2     2     3 2   
     3     2     4 1   
     4     2    12 1   
     5     4     5 1   
     6     4    15 1   
     7     4    16 1   
     8     5     6 ar  
     9     5    11 ar  
    10     6     7 ar  
    11     6    17 1   
    12     7     8 ar  
    13     7    18 1   
    14     8     9 1   
    15     8    10 ar  
    16     9    19 1   
    17     9    20 1   
    18     9    21 1   
    19    10    11 ar  
    20    10    22 1   
    21    11    23 1   
    22    12    13 1   
    23    12    24 1   
    24    12    25 1   
    25    13    14 1   
    26    13    26 1   
    27    14    27 1   
    28    14    28 1   
    29    14    29 1   
@<TRIPOS>SUBSTRUCTURE
     1 IC9         1 TEMP              0 ****  ****    0 ROOT
