@<TRIPOS>MOLECULE
ICB
   18    19     1     0     0
SMALL
No Charge or Current Charge


@<TRIPOS>ATOM
      1 C10         -2.7200     0.0770     0.0390 c          1 ICB       0.727200
      2 C01          3.3650     0.6740     0.0180 ca         1 ICB      -0.166000
      3 C02          3.3280    -0.7400     0.0280 ca         1 ICB      -0.130000
      4 C03          2.0920    -1.4220     0.0360 ca         1 ICB      -0.128000
      5 C04          0.9160    -0.6580     0.0340 ca         1 ICB      -0.073200
      6 C05          0.9590     0.7080     0.0250 ca         1 ICB      -0.097800
      7 C06          2.1660     1.4180     0.0160 ca         1 ICB      -0.074000
      8 C07         -0.3940     1.1730     0.0250 cc         1 ICB      -0.267200
      9 C08         -1.2190     0.0460     0.0350 cd         1 ICB      -0.091300
     10 N09         -0.3940    -1.1110     0.0410 na         1 ICB      -0.198700
     11 O11         -3.2930     1.1590     0.0330 o          1 ICB      -0.713000
     12 O12         -3.3180    -0.9910     0.0480 o          1 ICB      -0.713000
     13 H3           2.0550    -2.5090     0.0440 ha         1 ICB       0.096000
     14 H4           2.1790     2.5060     0.0090 ha         1 ICB       0.096000
     15 H5          -0.7360     2.2050     0.0190 ha         1 ICB       0.204000
     16 H6          -0.7130    -2.0740     0.0480 hn         1 ICB       0.359000
     17 H1           4.3220     1.1920     0.0120 ha         1 ICB       0.085000
     18 H2           4.2570    -1.3060     0.0290 ha         1 ICB       0.085000
@<TRIPOS>BOND
     1     1     9 1   
     2     1    11 1   
     3     1    12 1   
     4     2     3 ar  
     5     2     7 ar  
     6     2    17 1   
     7     3     4 ar  
     8     3    18 1   
     9     4     5 ar  
    10     4    13 1   
    11     5     6 ar  
    12     5    10 1   
    13     6     7 ar  
    14     6     8 1   
    15     7    14 1   
    16     8     9 2   
    17     8    15 1   
    18     9    10 1   
    19    10    16 1   
@<TRIPOS>SUBSTRUCTURE
     1 ICB         1 TEMP              0 ****  ****    0 ROOT
