@<TRIPOS>MOLECULE
ICB
   18    19     1     0     0
SMALL
bcc


@<TRIPOS>ATOM
      1 C10         -2.6960    -0.0080     0.0410 c          1 ICB       0.937800
      2 C01          3.3470     0.6460     0.0190 ca         1 ICB      -0.184000
      3 C02          3.2780    -0.7590     0.0290 ca         1 ICB      -0.148000
      4 C03          2.0640    -1.4180     0.0360 ca         1 ICB      -0.146000
      5 C04          0.9070    -0.6380     0.0330 ca         1 ICB      -0.073200
      6 C05          0.9530     0.7770     0.0220 ca         1 ICB      -0.097800
      7 C06          2.2010     1.4150     0.0150 ca         1 ICB      -0.092000
      8 C07         -0.4000     1.2290     0.0230 cc         1 ICB      -0.217200
      9 C08         -1.1980     0.1150     0.0340 cd         1 ICB      -0.091300
     10 N09         -0.4040    -1.0000     0.0410 na         1 ICB      -0.148400
     11 O11         -3.3360     1.0580     0.0400 o          1 ICB      -0.818300
     12 O12         -3.1450    -1.1720     0.0490 o          1 ICB      -0.818300
     13 H3           2.0140    -2.4990     0.0450 ha         1 ICB       0.114000
     14 H4           2.2650     2.4960     0.0080 ha         1 ICB       0.114000
     15 H5          -0.7410     2.2520     0.0160 ha         1 ICB       0.154000
     16 H6          -0.7680    -1.9390     0.0430 hn         1 ICB       0.308700
     17 H1           4.3170     1.1270     0.0140 ha         1 ICB       0.103000
     18 H2           4.1940    -1.3350     0.0330 ha         1 ICB       0.103000
@<TRIPOS>BOND
     1     1     9 1   
     2     1    11 1   
     3     1    12 1   
     4     2     3 ar  
     5     2     7 ar  
     6     2    17 1   
     7     3     4 ar  
     8     3    18 1   
     9     4     5 ar  
    10     4    13 1   
    11     5     6 ar  
    12     5    10 1   
    13     6     7 ar  
    14     6     8 1   
    15     7    14 1   
    16     8     9 2   
    17     8    15 1   
    18     9    10 1   
    19    10    16 1   
@<TRIPOS>SUBSTRUCTURE
     1 ICB         1 TEMP              0 ****  ****    0 ROOT
