@<TRIPOS>MOLECULE
ICC
   19    19     1     0     0
SMALL
No Charge or Current Charge


@<TRIPOS>ATOM
      1 O           -2.2640    -0.1110    -0.6780 o          1 ICC      -0.574000
      2 C6          -1.2630     0.0200     0.0080 c          1 ICC       0.564000
      3 N           -0.7420     1.2680     0.2450 ns         1 ICC      -0.511900
      4 C5          -0.5570    -1.1680     0.6690 c3         1 ICC      -0.159400
      5 C4           0.6340    -1.6380    -0.1930 c3         1 ICC      -0.067400
      6 C3           1.8730    -0.7170    -0.0790 c3         1 ICC      -0.074400
      7 C2           1.6350     0.7730    -0.4370 c3         1 ICC      -0.096400
      8 C1           0.6750     1.5340     0.5110 c3         1 ICC       0.115000
      9 HN          -1.2910     2.0350    -0.1250 hn         1 ICC       0.313500
     10 H5          -0.1580    -0.8760     1.6470 hc         1 ICC       0.064700
     11 H5A         -1.2690    -1.9950     0.7790 hc         1 ICC       0.064700
     12 H4           0.9250    -2.6470     0.1250 hc         1 ICC       0.047700
     13 H4A          0.3250    -1.7180    -1.2430 hc         1 ICC       0.047700
     14 H3           2.2700    -0.7770     0.9420 hc         1 ICC       0.040700
     15 H3A          2.6580    -1.1120    -0.7350 hc         1 ICC       0.040700
     16 H2           2.6070     1.2800    -0.4060 hc         1 ICC       0.048700
     17 H2A          1.2790     0.8570    -1.4720 hc         1 ICC       0.048700
     18 H1           0.8370     2.6120     0.3800 h1         1 ICC       0.042700
     19 H1A          0.9040     1.2900     1.5570 h1         1 ICC       0.042700
@<TRIPOS>BOND
     1     1     2 2   
     2     2     3 1   
     3     2     4 1   
     4     3     8 1   
     5     3     9 1   
     6     4     5 1   
     7     4    10 1   
     8     4    11 1   
     9     5     6 1   
    10     5    12 1   
    11     5    13 1   
    12     6     7 1   
    13     6    14 1   
    14     6    15 1   
    15     7     8 1   
    16     7    16 1   
    17     7    17 1   
    18     8    18 1   
    19     8    19 1   
@<TRIPOS>SUBSTRUCTURE
     1 ICC         1 TEMP              0 ****  ****    0 ROOT
