@<TRIPOS>MOLECULE
ICC
   19    19     1     0     0
SMALL
bcc


@<TRIPOS>ATOM
      1 O           -2.5050    -0.1160    -0.2310 o          1 ICC      -0.649500
      2 C6          -1.3380     0.0120     0.1250 c          1 ICC       0.706500
      3 N           -0.7040     1.1930     0.0400 ns         1 ICC      -0.578900
      4 C5          -0.5380    -1.1550     0.6590 c3         1 ICC      -0.159400
      5 C4           0.6380    -1.5570    -0.2400 c3         1 ICC      -0.067400
      6 C3           1.8890    -0.7030    -0.0690 c3         1 ICC      -0.074400
      7 C2           1.7220     0.7730    -0.4030 c3         1 ICC      -0.096400
      8 C1           0.6630     1.4840     0.4300 c3         1 ICC       0.115000
      9 HN          -1.2410     1.9540    -0.3460 hn         1 ICC       0.313500
     10 H5          -0.1720    -0.9300     1.6660 hc         1 ICC       0.064700
     11 H5A         -1.2290    -1.9920     0.7560 hc         1 ICC       0.064700
     12 H4           0.8960    -2.5910    -0.0030 hc         1 ICC       0.047700
     13 H4A          0.3190    -1.5580    -1.2860 hc         1 ICC       0.047700
     14 H3           2.2320    -0.7930     0.9670 hc         1 ICC       0.040700
     15 H3A          2.6860    -1.1200    -0.6890 hc         1 ICC       0.040700
     16 H2           2.6760     1.2780    -0.2310 hc         1 ICC       0.048700
     17 H2A          1.4880     0.9040    -1.4640 hc         1 ICC       0.048700
     18 H1           0.7820     2.5610     0.3210 h1         1 ICC       0.042700
     19 H1A          0.8130     1.2660     1.4920 h1         1 ICC       0.042700
@<TRIPOS>BOND
     1     1     2 2   
     2     2     3 1   
     3     2     4 1   
     4     3     8 1   
     5     3     9 1   
     6     4     5 1   
     7     4    10 1   
     8     4    11 1   
     9     5     6 1   
    10     5    12 1   
    11     5    13 1   
    12     6     7 1   
    13     6    14 1   
    14     6    15 1   
    15     7     8 1   
    16     7    16 1   
    17     7    17 1   
    18     8    18 1   
    19     8    19 1   
@<TRIPOS>SUBSTRUCTURE
     1 ICC         1 TEMP              0 ****  ****    0 ROOT
