@<TRIPOS>MOLECULE
ICD
   36    38     1     0     0
SMALL
abcg2


@<TRIPOS>ATOM
      1 CAA          2.5550    -1.1650    -0.0740 ca         1 ICD      -0.048800
      2 CAB          2.9570     0.1130     0.3270 ca         1 ICD      -0.273500
      3 CAC          1.1290    -1.5410    -0.0950 ce         1 ICD       0.197900
      4 CAD          3.5440    -2.0610    -0.4760 ca         1 ICD      -0.108000
      5 SAE          1.6770     1.2240     0.8130 sy         1 ICD       1.165600
      6 CAF          4.2820     0.5030     0.3330 ca         1 ICD      -0.002000
      7 CAG          0.1550    -0.5990    -0.1840 cf         1 ICD      -0.078200
      8 OAH          0.8240    -2.8300    -0.0180 oh         1 ICD      -0.477100
      9 CAI          4.8790    -1.6850    -0.4620 ca         1 ICD      -0.060000
     10 NAJ          0.5040     0.7780    -0.2740 nh         1 ICD      -0.591300
     11 OAK          2.0810     2.5870     0.5300 o          1 ICD      -0.517000
     12 OAL          1.2120     0.8660     2.1360 o          1 ICD      -0.517000
     13 CAM          5.2510    -0.4110    -0.0590 ca         1 ICD      -0.106000
     14 CAN         -1.2900    -0.9080    -0.1650 c          1 ICD       0.652300
     15 CAO          0.5940     1.3340    -1.6290 c3         1 ICD       0.178100
     16 NAP         -2.0660     0.1900     0.0740 ns         1 ICD      -0.470400
     17 OAQ         -1.7470    -2.0210    -0.3400 o          1 ICD      -0.556100
     18 CAR         -3.4410     0.2120     0.1200 cc         1 ICD       0.409900
     19 NAS         -4.0270     1.3530     0.3650 nd         1 ICD      -0.433300
     20 CAT         -4.3860    -0.8320    -0.0610 cc         1 ICD      -0.243000
     21 OAU         -5.3660     1.0910     0.3510 os         1 ICD      -0.068700
     22 CAV         -5.5750    -0.2030     0.0980 cd         1 ICD       0.187300
     23 CAW         -6.9740    -0.6800     0.0430 c3         1 ICD      -0.136400
     24 HAD          3.2870    -3.0500    -0.8320 ha         1 ICD       0.122000
     25 HAF          4.5640     1.5010     0.6400 ha         1 ICD       0.143000
     26 HAH          1.5640    -3.3490     0.3210 ho         1 ICD       0.481000
     27 HAI          5.6320    -2.3920    -0.7820 ha         1 ICD       0.125000
     28 HAM          6.2930    -0.1230    -0.0560 ha         1 ICD       0.128000
     29 HAO          1.4610     0.9570    -2.1760 h1         1 ICD       0.060367
     30 HAOA        -0.3050     1.0390    -2.1660 h1         1 ICD       0.060367
     31 HAOB         0.6230     2.4190    -1.5930 h1         1 ICD       0.060367
     32 HNAP        -1.5950     1.0640     0.2640 hn         1 ICD       0.355500
     33 HAT         -4.2180    -1.8720    -0.2700 ha         1 ICD       0.174000
     34 HAW         -7.4930    -0.4920     0.9830 hc         1 ICD       0.062033
     35 HAWA        -7.5300    -0.1800    -0.7510 hc         1 ICD       0.062033
     36 HAWB        -6.9930    -1.7500    -0.1500 hc         1 ICD       0.062033
@<TRIPOS>BOND
     1     1     2 ar  
     2     1     3 1   
     3     1     4 ar  
     4     2     5 1   
     5     2     6 ar  
     6     3     7 2   
     7     3     8 1   
     8     4     9 ar  
     9     4    24 1   
    10     5    10 1   
    11     5    11 2   
    12     5    12 2   
    13     6    13 ar  
    14     6    25 1   
    15     7    10 1   
    16     7    14 1   
    17     8    26 1   
    18     9    13 ar  
    19     9    27 1   
    20    10    15 1   
    21    13    28 1   
    22    14    16 1   
    23    14    17 2   
    24    15    29 1   
    25    15    30 1   
    26    15    31 1   
    27    16    18 1   
    28    16    32 1   
    29    18    19 2   
    30    18    20 1   
    31    19    21 1   
    32    20    22 2   
    33    20    33 1   
    34    21    22 1   
    35    22    23 1   
    36    23    34 1   
    37    23    35 1   
    38    23    36 1   
@<TRIPOS>SUBSTRUCTURE
     1 ICD         1 TEMP              0 ****  ****    0 ROOT
