@<TRIPOS>MOLECULE
ICD
   36    38     1     0     0
SMALL
No Charge or Current Charge


@<TRIPOS>ATOM
      1 CAA          2.6340    -1.2340    -0.0530 ca         1 ICD      -0.048800
      2 CAB          3.0680     0.0660     0.3010 ca         1 ICD      -0.273500
      3 CAC          1.1600    -1.5510    -0.0540 ce         1 ICD       0.197900
      4 CAD          3.6060    -2.1890    -0.4360 ca         1 ICD      -0.108000
      5 SAE          1.8520     1.3130     0.7440 sy         1 ICD       1.165600
      6 CAF          4.4380     0.3980     0.2890 ca         1 ICD      -0.002000
      7 CAG          0.1700    -0.5970    -0.1570 cf         1 ICD      -0.078200
      8 OAH          0.8650    -2.8700     0.0920 oh         1 ICD      -0.477100
      9 CAI          4.9730    -1.8580    -0.4410 ca         1 ICD      -0.060000
     10 NAJ          0.5540     0.7720    -0.2320 nh         1 ICD      -0.591300
     11 OAK          2.3040     2.6270     0.2680 o          1 ICD      -0.517000
     12 OAL          1.4530     1.1020     2.1400 o          1 ICD      -0.517000
     13 CAM          5.3880    -0.5680    -0.0760 ca         1 ICD      -0.106000
     14 CAN         -1.3150    -0.9350    -0.1340 c          1 ICD       0.652300
     15 CAO          0.2770     1.5690    -1.4470 c3         1 ICD       0.178100
     16 NAP         -2.1240     0.1670     0.0010 ns         1 ICD      -0.470400
     17 OAQ         -1.7720    -2.0670    -0.2150 o          1 ICD      -0.556100
     18 CAR         -3.4920     0.2670     0.0440 cc         1 ICD       0.409900
     19 NAS         -4.0520     1.4500     0.2010 nd         1 ICD      -0.433300
     20 CAT         -4.4220    -0.7810    -0.0680 cc         1 ICD      -0.243000
     21 OAU         -5.4660     1.1670     0.1940 os         1 ICD      -0.068700
     22 CAV         -5.6320    -0.1830     0.0300 cd         1 ICD       0.187300
     23 CAW         -7.0170    -0.7590    -0.0150 c3         1 ICD      -0.136400
     24 HAD          3.3190    -3.1880    -0.7570 ha         1 ICD       0.122000
     25 HAF          4.7690     1.4000     0.5610 ha         1 ICD       0.143000
     26 HAH          1.7060    -3.3120     0.3230 ho         1 ICD       0.481000
     27 HAI          5.7100    -2.6010    -0.7380 ha         1 ICD       0.125000
     28 HAM          6.4460    -0.3140    -0.0850 ha         1 ICD       0.128000
     29 HAO          1.1890     1.6850    -2.0480 h1         1 ICD       0.060367
     30 HAOA        -0.4760     1.0780    -2.0760 h1         1 ICD       0.060367
     31 HAOB        -0.0930     2.5670    -1.1800 h1         1 ICD       0.060367
     32 HNAP        -1.6020     1.0250     0.0950 hn         1 ICD       0.355500
     33 HAT         -4.2210    -1.8340    -0.2050 ha         1 ICD       0.174000
     34 HAW         -7.5610    -0.5430     0.9120 hc         1 ICD       0.062033
     35 HAWA        -7.5890    -0.3370    -0.8500 hc         1 ICD       0.062033
     36 HAWB        -6.9880    -1.8480    -0.1430 hc         1 ICD       0.062033
@<TRIPOS>BOND
     1     1     2 ar  
     2     1     3 1   
     3     1     4 ar  
     4     2     5 1   
     5     2     6 ar  
     6     3     7 2   
     7     3     8 1   
     8     4     9 ar  
     9     4    24 1   
    10     5    10 1   
    11     5    11 2   
    12     5    12 2   
    13     6    13 ar  
    14     6    25 1   
    15     7    10 1   
    16     7    14 1   
    17     8    26 1   
    18     9    13 ar  
    19     9    27 1   
    20    10    15 1   
    21    13    28 1   
    22    14    16 1   
    23    14    17 2   
    24    15    29 1   
    25    15    30 1   
    26    15    31 1   
    27    16    18 1   
    28    16    32 1   
    29    18    19 2   
    30    18    20 1   
    31    19    21 1   
    32    20    22 2   
    33    20    33 1   
    34    21    22 1   
    35    22    23 1   
    36    23    34 1   
    37    23    35 1   
    38    23    36 1   
@<TRIPOS>SUBSTRUCTURE
     1 ICD         1 TEMP              0 ****  ****    0 ROOT
