@<TRIPOS>MOLECULE
ICF
   12    11     1     0     0
SMALL
No Charge or Current Charge


@<TRIPOS>ATOM
      1 FAC         -0.3560    -0.9850    -2.3680 f          1 ICF      -0.095667
      2 CAJ          0.2360    -0.0500    -1.5890 c3         1 ICF       0.315000
      3 FAD         -0.1780     1.1670    -2.0150 f          1 ICF      -0.095667
      4 FAE          1.5710    -0.1310    -1.7970 f          1 ICF      -0.095667
      5 CAI         -0.1080    -0.2780    -0.0890 c3         1 ICF       0.272300
      6 ClAF        -1.9150    -0.2220     0.1690 cl         1 ICF      -0.218000
      7 OAG          0.5710     0.7350     0.6990 os         1 ICF      -0.461000
      8 CAH          0.7780     0.4450     2.1000 c3         1 ICF       0.387300
      9 FAB         -0.3930     0.2970     2.7600 f          1 ICF      -0.122500
     10 FAA          1.4660    -0.7090     2.2590 f          1 ICF      -0.122500
     11 HAI          0.2200    -1.2880     0.1850 h2         1 ICF       0.112700
     12 HAH          1.3420     1.2540     2.5770 h3         1 ICF       0.121700
@<TRIPOS>BOND
     1     1     2 1   
     2     2     3 1   
     3     2     4 1   
     4     2     5 1   
     5     5     6 1   
     6     5     7 1   
     7     5    11 1   
     8     7     8 1   
     9     8     9 1   
    10     8    10 1   
    11     8    12 1   
@<TRIPOS>SUBSTRUCTURE
     1 ICF         1 TEMP              0 ****  ****    0 ROOT
