@<TRIPOS>MOLECULE
ICF
   12    11     1     0     0
SMALL
bcc


@<TRIPOS>ATOM
      1 FAC         -0.3200    -0.9560    -2.2780 f          1 ICF      -0.216967
      2 CAJ          0.2560    -0.0620    -1.4800 c3         1 ICF       0.678900
      3 FAD         -0.0500     1.1530    -1.9250 f          1 ICF      -0.216967
      4 FAE          1.5760    -0.2150    -1.5710 f          1 ICF      -0.216967
      5 CAI         -0.1920    -0.2620    -0.0340 c3         1 ICF       0.172500
      6 CLAF        -1.9660    -0.0950     0.0320 cl         1 ICF      -0.141400
      7 OAG          0.4260     0.7290     0.7110 os         1 ICF      -0.414600
      8 CAH          0.7950     0.4400     1.9930 c3         1 ICF       0.606700
      9 FAB         -0.2550    -0.0170     2.7040 f          1 ICF      -0.243800
     10 FAA          1.7170    -0.5450     2.0130 f          1 ICF      -0.243800
     11 HAI          0.0510    -1.2800     0.2820 h2         1 ICF       0.112700
     12 HAH          1.1970     1.3450     2.4420 h3         1 ICF       0.121700
@<TRIPOS>BOND
     1     1     2 1   
     2     2     3 1   
     3     2     4 1   
     4     2     5 1   
     5     5     6 1   
     6     5     7 1   
     7     5    11 1   
     8     7     8 1   
     9     8     9 1   
    10     8    10 1   
    11     8    12 1   
@<TRIPOS>SUBSTRUCTURE
     1 ICF         1 TEMP              0 ****  ****    0 ROOT
