@<TRIPOS>MOLECULE
ICJ
   86    88     1     0     0
SMALL
abcg2


@<TRIPOS>ATOM
      1 O1          -5.3380     2.2310     0.1270 oh         1 ICJ      -0.657000
      2 O2          -8.8480     0.0890    -0.7660 oh         1 ICJ      -0.662000
      3 O3           4.5370     2.7290     1.1760 oh         1 ICJ      -0.658000
      4 C01         -6.0580     1.6250     1.1840 c6         1 ICJ       0.212500
      5 C02         -7.4690     1.3520     0.6830 c6         1 ICJ      -0.065400
      6 C03         -7.4980     0.2930    -0.4090 c6         1 ICJ       0.176300
      7 C04         -6.8420    -0.9970     0.0930 c6         1 ICJ      -0.073200
      8 C05         -5.4490    -0.7390     0.6010 ce         1 ICJ      -0.067200
      9 C06         -4.3870    -1.4150     0.1290 cf         1 ICJ      -0.162000
     10 C07         -2.9990    -1.1910     0.4790 cf         1 ICJ      -0.192000
     11 C08         -1.9460    -1.8900     0.0240 c2         1 ICJ      -0.077400
     12 C09         -2.0130    -3.0660    -0.9110 c6         1 ICJ      -0.042200
     13 C10         -5.3830     0.3390     1.6060 ce         1 ICJ      -0.126200
     14 C11         -1.1410    -2.8470    -2.1520 c6         1 ICJ      -0.071400
     15 C12          0.2880    -2.4290    -1.8040 c6         1 ICJ      -0.062400
     16 C13          0.3210    -1.2200    -0.8650 c5         1 ICJ      -0.036000
     17 C14         -0.5310    -1.5670     0.3820 c5         1 ICJ      -0.037500
     18 C15         -0.2030    -0.4620     1.3730 c5         1 ICJ      -0.070400
     19 C16          1.2900    -0.1800     1.1170 c5         1 ICJ      -0.078400
     20 C17          1.6820    -0.9230    -0.1900 c5         1 ICJ      -0.054700
     21 C18         -0.2280     0.0280    -1.5600 c3         1 ICJ      -0.080100
     22 C19         -4.8160     0.2120     2.8040 c2         1 ICJ      -0.295000
     23 C20          2.7510    -0.1660    -0.9910 c3         1 ICJ      -0.043700
     24 C21          3.0720    -0.8150    -2.3380 c3         1 ICJ      -0.086100
     25 C22          4.0380     0.0340    -0.1520 c3         1 ICJ      -0.057700
     26 C23          4.8750     1.2040    -0.6870 c3         1 ICJ      -0.109400
     27 C24          4.3910     2.5760    -0.2250 c3         1 ICJ       0.166300
     28 C25          5.0380     3.7300    -1.0050 c3         1 ICJ      -0.090700
     29 C26          4.4040     5.0670    -0.6370 c3         1 ICJ      -0.086600
     30 C27          6.5540     3.7920    -0.8330 c3         1 ICJ      -0.086600
     31 C28          4.8770    -1.2460    -0.0490 c3         1 ICJ      -0.072400
     32 C29          5.8570    -1.2460     1.1190 c3         1 ICJ      -0.077400
     33 C30          6.7420    -2.4860     1.1490 c3         1 ICJ      -0.076400
     34 C31          7.7270    -2.4850     2.3110 c3         1 ICJ      -0.088100
     35 HO1         -4.4220     2.3340     0.4060 ho         1 ICJ       0.445000
     36 HO3          5.4570     2.5580     1.4020 ho         1 ICJ       0.436000
     37 H01         -6.1130     2.2980     2.0500 h1         1 ICJ       0.037700
     38 H02         -8.0710     1.0100     1.5310 hc         1 ICJ       0.062200
     39 H02A        -7.9180     2.2830     0.3260 hc         1 ICJ       0.062200
     40 H03         -6.9230     0.6530    -1.2730 h1         1 ICJ       0.049700
     41 H04         -7.4620    -1.3950     0.9070 hc         1 ICJ       0.051700
     42 H04A        -6.8250    -1.7470    -0.7020 hc         1 ICJ       0.051700
     43 H06         -4.5910    -2.1790    -0.6140 ha         1 ICJ       0.169000
     44 H07         -2.8070    -0.3710     1.1620 ha         1 ICJ       0.174000
     45 H09         -1.6350    -3.9470    -0.3770 hc         1 ICJ       0.045700
     46 H09A        -3.0320    -3.3050    -1.2130 hc         1 ICJ       0.045700
     47 H11         -1.1180    -3.7680    -2.7400 hc         1 ICJ       0.040700
     48 H11A        -1.6080    -2.0930    -2.7910 hc         1 ICJ       0.040700
     49 H12          0.7980    -3.2650    -1.3120 hc         1 ICJ       0.040700
     50 H12A         0.8350    -2.2330    -2.7270 hc         1 ICJ       0.040700
     51 H14         -0.0950    -2.4970     0.7820 hc         1 ICJ       0.052700
     52 H15         -0.8040     0.4300     1.1820 hc         1 ICJ       0.043200
     53 H15A        -0.4070    -0.7600     2.4030 hc         1 ICJ       0.043200
     54 H16          1.4730     0.8930     1.0180 hc         1 ICJ       0.045200
     55 H16A         1.9040    -0.5180     1.9530 hc         1 ICJ       0.045200
     56 H17          2.1000    -1.9010     0.0880 hc         1 ICJ       0.044700
     57 H18         -1.2640    -0.1050    -1.8720 hc         1 ICJ       0.034700
     58 H18A        -0.2070     0.9030    -0.9100 hc         1 ICJ       0.034700
     59 H18B         0.3510     0.2730    -2.4520 hc         1 ICJ       0.034700
     60 H19         -4.8140     1.0310     3.5140 ha         1 ICJ       0.168500
     61 H19A        -4.3490    -0.7110     3.1210 ha         1 ICJ       0.168500
     62 H20          2.3430     0.8340    -1.1950 hc         1 ICJ       0.047700
     63 H21          3.2570    -1.8860    -2.2410 hc         1 ICJ       0.032033
     64 H21A         2.2630    -0.6870    -3.0540 hc         1 ICJ       0.032033
     65 H21B         3.9600    -0.3730    -2.7940 hc         1 ICJ       0.032033
     66 H22          3.7400     0.3040     0.8650 hc         1 ICJ       0.061700
     67 H23          5.9210     1.0800    -0.3860 hc         1 ICJ       0.044700
     68 H23A         4.8910     1.1860    -1.7820 hc         1 ICJ       0.044700
     69 H24          3.3100     2.6400    -0.4010 h1         1 ICJ       0.069700
     70 H25          4.8270     3.5350    -2.0630 hc         1 ICJ       0.047700
     71 H26          4.5750     5.3100     0.4130 hc         1 ICJ       0.034533
     72 H26A         4.8240     5.8760    -1.2370 hc         1 ICJ       0.034533
     73 H26B         3.3250     5.0570    -0.8050 hc         1 ICJ       0.034533
     74 H27          7.0450     2.8640    -1.1290 hc         1 ICJ       0.034533
     75 H27A         6.9740     4.5920    -1.4440 hc         1 ICJ       0.034533
     76 H27B         6.8350     4.0040     0.2020 hc         1 ICJ       0.034533
     77 H28          4.2190    -2.1150     0.0570 hc         1 ICJ       0.039200
     78 H28A         5.4290    -1.4010    -0.9830 hc         1 ICJ       0.039200
     79 H29          6.4960    -0.3580     1.0790 hc         1 ICJ       0.036700
     80 H29A         5.2980    -1.1740     2.0590 hc         1 ICJ       0.036700
     81 H30          6.1120    -3.3810     1.1990 hc         1 ICJ       0.036200
     82 H30A         7.2900    -2.5560     0.2030 hc         1 ICJ       0.036200
     83 H31          8.3530    -3.3780     2.3070 hc         1 ICJ       0.031700
     84 H31A         8.3860    -1.6160     2.2630 hc         1 ICJ       0.031700
     85 H31B         7.2050    -2.4510     3.2690 hc         1 ICJ       0.031700
     86 HO2         -8.8730    -0.4890    -1.5360 ho         1 ICJ       0.442000
@<TRIPOS>BOND
     1     1     4 1   
     2     1    35 1   
     3     2     6 1   
     4     2    86 1   
     5     3    27 1   
     6     3    36 1   
     7     4     5 1   
     8     4    13 1   
     9     4    37 1   
    10     5     6 1   
    11     5    38 1   
    12     5    39 1   
    13     6     7 1   
    14     6    40 1   
    15     7     8 1   
    16     7    41 1   
    17     7    42 1   
    18     8     9 2   
    19     8    13 1   
    20     9    10 1   
    21     9    43 1   
    22    10    11 2   
    23    10    44 1   
    24    11    12 1   
    25    11    17 1   
    26    12    14 1   
    27    12    45 1   
    28    12    46 1   
    29    13    22 2   
    30    14    15 1   
    31    14    47 1   
    32    14    48 1   
    33    15    16 1   
    34    15    49 1   
    35    15    50 1   
    36    16    17 1   
    37    16    20 1   
    38    16    21 1   
    39    17    18 1   
    40    17    51 1   
    41    18    19 1   
    42    18    52 1   
    43    18    53 1   
    44    19    20 1   
    45    19    54 1   
    46    19    55 1   
    47    20    23 1   
    48    20    56 1   
    49    21    57 1   
    50    21    58 1   
    51    21    59 1   
    52    22    60 1   
    53    22    61 1   
    54    23    24 1   
    55    23    25 1   
    56    23    62 1   
    57    24    63 1   
    58    24    64 1   
    59    24    65 1   
    60    25    26 1   
    61    25    31 1   
    62    25    66 1   
    63    26    27 1   
    64    26    67 1   
    65    26    68 1   
    66    27    28 1   
    67    27    69 1   
    68    28    29 1   
    69    28    30 1   
    70    28    70 1   
    71    29    71 1   
    72    29    72 1   
    73    29    73 1   
    74    30    74 1   
    75    30    75 1   
    76    30    76 1   
    77    31    32 1   
    78    31    77 1   
    79    31    78 1   
    80    32    33 1   
    81    32    79 1   
    82    32    80 1   
    83    33    34 1   
    84    33    81 1   
    85    33    82 1   
    86    34    83 1   
    87    34    84 1   
    88    34    85 1   
@<TRIPOS>SUBSTRUCTURE
     1 ICJ         1 TEMP              0 ****  ****    0 ROOT
