@<TRIPOS>MOLECULE
ICJ
   86    88     1     0     0
SMALL
No Charge or Current Charge


@<TRIPOS>ATOM
      1 O1          -5.6860     2.0680     1.4100 oh         1 ICJ      -0.657000
      2 O2          -9.1780    -0.0010    -0.2210 oh         1 ICJ      -0.662000
      3 O3           4.0320     3.2200     0.0990 oh         1 ICJ      -0.658000
      4 C01         -6.3260     1.0020     2.1120 c6         1 ICJ       0.212500
      5 C02         -7.7770     0.8060     1.6090 c6         1 ICJ      -0.065400
      6 C03         -7.8190     0.2260     0.1740 c6         1 ICJ       0.176300
      7 C04         -7.0150    -1.0960     0.0970 c6         1 ICJ      -0.073200
      8 C05         -5.5770    -0.8960     0.5940 ce         1 ICJ      -0.067200
      9 C06         -4.5120    -1.3190    -0.1500 cf         1 ICJ      -0.162000
     10 C07         -3.0990    -1.1660     0.2100 cf         1 ICJ      -0.192000
     11 C08         -2.0190    -1.7200    -0.4110 c2         1 ICJ      -0.077400
     12 C09         -2.1080    -2.6830    -1.6030 c6         1 ICJ      -0.042200
     13 C10         -5.5020    -0.2820     1.9350 ce         1 ICJ      -0.126200
     14 C11         -1.1830    -2.2540    -2.7700 c6         1 ICJ      -0.071400
     15 C12          0.2630    -1.9340    -2.2960 c6         1 ICJ      -0.062400
     16 C13          0.2860    -0.9050    -1.1160 c5         1 ICJ      -0.036000
     17 C14         -0.5670    -1.5050     0.0550 c5         1 ICJ      -0.037500
     18 C15         -0.3400    -0.4730     1.1900 c5         1 ICJ      -0.070400
     19 C16          1.1850    -0.1650     1.0560 c5         1 ICJ      -0.078400
     20 C17          1.6500    -0.7910    -0.3180 c5         1 ICJ      -0.054700
     21 C18         -0.2130     0.4800    -1.6580 c3         1 ICJ      -0.080100
     22 C19         -4.8020    -0.8230     2.9570 c2         1 ICJ      -0.295000
     23 C20          2.8690    -0.0230    -0.9660 c3         1 ICJ      -0.043700
     24 C21          3.2990    -0.6000    -2.3420 c3         1 ICJ      -0.086100
     25 C22          4.1070     0.1520     0.0060 c3         1 ICJ      -0.057700
     26 C23          5.1950     1.1610    -0.5060 c3         1 ICJ      -0.109400
     27 C24          4.6940     2.5540    -0.9840 c3         1 ICJ       0.166300
     28 C25          5.8220     3.4660    -1.5620 c3         1 ICJ      -0.090700
     29 C26          5.2450     4.7390    -2.2280 c3         1 ICJ      -0.086600
     30 C27          6.9380     3.8350    -0.5480 c3         1 ICJ      -0.086600
     31 C28          4.7490    -1.2160     0.4090 c3         1 ICJ      -0.072400
     32 C29          5.8510    -1.1420     1.4950 c3         1 ICJ      -0.077400
     33 C30          6.3180    -2.5350     1.9730 c3         1 ICJ      -0.076400
     34 C31          7.4200    -2.4660     3.0480 c3         1 ICJ      -0.088100
     35 HO1         -4.7240     1.9350     1.5510 ho         1 ICJ       0.445000
     36 HO3          4.7190     3.4080     0.7720 ho         1 ICJ       0.436000
     37 H01         -6.3720     1.2500     3.1840 h1         1 ICJ       0.037700
     38 H02         -8.3010     0.1250     2.2930 hc         1 ICJ       0.062200
     39 H02A        -8.3180     1.7610     1.6480 hc         1 ICJ       0.062200
     40 H03         -7.3500     0.9540    -0.5060 h1         1 ICJ       0.049700
     41 H04         -7.5020    -1.8670     0.7090 hc         1 ICJ       0.051700
     42 H04A        -7.0200    -1.4710    -0.9360 hc         1 ICJ       0.051700
     43 H06         -4.7400    -1.7820    -1.1080 ha         1 ICJ       0.169000
     44 H07         -2.9270    -0.5310     1.0760 ha         1 ICJ       0.174000
     45 H09         -1.8080    -3.6830    -1.2620 hc         1 ICJ       0.045700
     46 H09A        -3.1270    -2.7990    -1.9850 hc         1 ICJ       0.045700
     47 H11         -1.1530    -3.0500    -3.5260 hc         1 ICJ       0.040700
     48 H11A        -1.6140    -1.3800    -3.2760 hc         1 ICJ       0.040700
     49 H12          0.7540    -2.8660    -1.9850 hc         1 ICJ       0.040700
     50 H12A         0.8260    -1.5620    -3.1580 hc         1 ICJ       0.040700
     51 H14         -0.1680    -2.4790     0.3700 hc         1 ICJ       0.052700
     52 H15         -0.9260     0.4430     1.0550 hc         1 ICJ       0.043200
     53 H15A        -0.5970    -0.8780     2.1750 hc         1 ICJ       0.043200
     54 H16          1.3520     0.9180     1.0890 hc         1 ICJ       0.045200
     55 H16A         1.7520    -0.5920     1.8910 hc         1 ICJ       0.045200
     56 H17          2.0090    -1.8100    -0.1380 hc         1 ICJ       0.044700
     57 H18         -1.2780     0.4650    -1.9160 hc         1 ICJ       0.034700
     58 H18A        -0.0750     1.2930    -0.9370 hc         1 ICJ       0.034700
     59 H18B         0.3370     0.7700    -2.5610 hc         1 ICJ       0.034700
     60 H19         -4.7750    -0.3630     3.9450 ha         1 ICJ       0.168500
     61 H19A        -4.2410    -1.7500     2.8370 ha         1 ICJ       0.168500
     62 H20          2.4960     0.9860    -1.1670 hc         1 ICJ       0.047700
     63 H21          3.3790    -1.6930    -2.3060 hc         1 ICJ       0.032033
     64 H21A         2.5790    -0.3210    -3.1170 hc         1 ICJ       0.032033
     65 H21B         4.2620    -0.2030    -2.6750 hc         1 ICJ       0.032033
     66 H22          3.7260     0.5940     0.9340 hc         1 ICJ       0.061700
     67 H23          5.9060     1.3320     0.3090 hc         1 ICJ       0.044700
     68 H23A         5.7750     0.6980    -1.3120 hc         1 ICJ       0.044700
     69 H24          3.9840     2.3910    -1.8060 h1         1 ICJ       0.069700
     70 H25          6.3050     2.8940    -2.3640 hc         1 ICJ       0.047700
     71 H26          4.7730     5.3950    -1.4870 hc         1 ICJ       0.034533
     72 H26A         6.0380     5.3080    -2.7290 hc         1 ICJ       0.034533
     73 H26B         4.4940     4.4760    -2.9820 hc         1 ICJ       0.034533
     74 H27          7.4470     2.9410    -0.1690 hc         1 ICJ       0.034533
     75 H27A         7.6990     4.4610    -1.0290 hc         1 ICJ       0.034533
     76 H27B         6.5350     4.3940     0.3050 hc         1 ICJ       0.034533
     77 H28          3.9710    -1.8840     0.7900 hc         1 ICJ       0.039200
     78 H28A         5.1660    -1.7010    -0.4830 hc         1 ICJ       0.039200
     79 H29          6.7220    -0.6030     1.1050 hc         1 ICJ       0.036700
     80 H29A         5.4740    -0.5750     2.3550 hc         1 ICJ       0.036700
     81 H30          5.4610    -3.0880     2.3780 hc         1 ICJ       0.036200
     82 H30A         6.6920    -3.1070     1.1150 hc         1 ICJ       0.036200
     83 H31          7.7170    -3.4760     3.3550 hc         1 ICJ       0.031700
     84 H31A         8.3070    -1.9500     2.6610 hc         1 ICJ       0.031700
     85 H31B         7.0640    -1.9280     3.9340 hc         1 ICJ       0.031700
     86 HO2         -9.1530    -0.2950    -1.1580 ho         1 ICJ       0.442000
@<TRIPOS>BOND
     1     1     4 1   
     2     1    35 1   
     3     2     6 1   
     4     2    86 1   
     5     3    27 1   
     6     3    36 1   
     7     4     5 1   
     8     4    13 1   
     9     4    37 1   
    10     5     6 1   
    11     5    38 1   
    12     5    39 1   
    13     6     7 1   
    14     6    40 1   
    15     7     8 1   
    16     7    41 1   
    17     7    42 1   
    18     8     9 2   
    19     8    13 1   
    20     9    10 1   
    21     9    43 1   
    22    10    11 2   
    23    10    44 1   
    24    11    12 1   
    25    11    17 1   
    26    12    14 1   
    27    12    45 1   
    28    12    46 1   
    29    13    22 2   
    30    14    15 1   
    31    14    47 1   
    32    14    48 1   
    33    15    16 1   
    34    15    49 1   
    35    15    50 1   
    36    16    17 1   
    37    16    20 1   
    38    16    21 1   
    39    17    18 1   
    40    17    51 1   
    41    18    19 1   
    42    18    52 1   
    43    18    53 1   
    44    19    20 1   
    45    19    54 1   
    46    19    55 1   
    47    20    23 1   
    48    20    56 1   
    49    21    57 1   
    50    21    58 1   
    51    21    59 1   
    52    22    60 1   
    53    22    61 1   
    54    23    24 1   
    55    23    25 1   
    56    23    62 1   
    57    24    63 1   
    58    24    64 1   
    59    24    65 1   
    60    25    26 1   
    61    25    31 1   
    62    25    66 1   
    63    26    27 1   
    64    26    67 1   
    65    26    68 1   
    66    27    28 1   
    67    27    69 1   
    68    28    29 1   
    69    28    30 1   
    70    28    70 1   
    71    29    71 1   
    72    29    72 1   
    73    29    73 1   
    74    30    74 1   
    75    30    75 1   
    76    30    76 1   
    77    31    32 1   
    78    31    77 1   
    79    31    78 1   
    80    32    33 1   
    81    32    79 1   
    82    32    80 1   
    83    33    34 1   
    84    33    81 1   
    85    33    82 1   
    86    34    83 1   
    87    34    84 1   
    88    34    85 1   
@<TRIPOS>SUBSTRUCTURE
     1 ICJ         1 TEMP              0 ****  ****    0 ROOT
