@<TRIPOS>MOLECULE
ICK
   37    40     1     0     0
SMALL
No Charge or Current Charge


@<TRIPOS>ATOM
      1 C11         32.2530   -49.1800    -7.9820 ca         1 ICK      -0.110900
      2 C13         32.9050   -50.6820    -6.1550 ca         1 ICK      -0.123500
      3 C15         34.2900   -48.7600    -6.6790 ca         1 ICK      -0.123500
      4 C16         33.4060   -48.4010    -7.7110 ca         1 ICK      -0.071500
      5 C17         26.4970   -44.4320   -16.7760 ca         1 ICK       0.350900
      6 C19         28.0870   -42.7660   -16.9140 ca         1 ICK       0.436000
      7 C20         28.8240   -43.3060   -15.8470 ca         1 ICK      -0.098000
      8 C21         28.3700   -44.4810   -15.2050 ca         1 ICK      -0.112600
      9 C22         27.1670   -45.0460   -15.7010 ca         1 ICK      -0.150000
     10 C23         29.1620   -45.0700   -14.0510 c          1 ICK       0.617700
     11 C1          29.0880   -47.0180   -12.4330 cc         1 ICK       0.092600
     12 C2          28.2860   -48.1740   -12.0940 cc         1 ICK      -0.208000
     13 C3          28.5900   -49.0720   -11.0720 cd         1 ICK      -0.041000
     14 C4          30.2410   -46.7680   -11.7050 cd         1 ICK      -0.130000
     15 C5          30.5400   -47.6940   -10.6640 cd         1 ICK      -0.036000
     16 N6          29.7570   -48.7750   -10.3730 na         1 ICK       0.281400
     17 N7          30.2270   -49.5220    -9.3450 nd         1 ICK      -0.599100
     18 C8          31.3180   -48.8110    -9.0650 cc         1 ICK       0.594900
     19 N9          31.5560   -47.6910    -9.8350 nc         1 ICK      -0.398300
     20 C12         32.0180   -50.3270    -7.1870 ca         1 ICK      -0.071500
     21 C14         34.0410   -49.9000    -5.9000 ca         1 ICK      -0.094000
     22 N18         26.9430   -43.3090   -17.3800 nb         1 ICK      -0.642000
     23 O25         30.1930   -44.5400   -13.6650 o          1 ICK      -0.547100
     24 H31         32.7090   -51.5670    -5.5530 ha         1 ICK       0.114500
     25 H33         35.1700   -48.1510    -6.4830 ha         1 ICK       0.114500
     26 H34         33.6260   -47.5110    -8.2970 ha         1 ICK       0.131000
     27 H35         25.5730   -44.8570   -17.1650 h4         1 ICK       0.032100
     28 H36         29.7360   -42.8090   -15.5310 ha         1 ICK       0.161000
     29 H37         26.7320   -45.9470   -15.2790 ha         1 ICK       0.130000
     30 H26         27.3870   -48.3510   -12.6770 ha         1 ICK       0.131000
     31 H27         28.0210   -49.9470   -10.7840 h4         1 ICK       0.164000
     32 H28         30.9010   -45.9310   -11.8870 ha         1 ICK       0.180000
     33 H29         27.7810   -46.5220   -13.9290 hn         1 ICK       0.326500
     34 H30         31.1440   -50.9520    -7.3630 ha         1 ICK       0.131000
     35 H32         34.7260   -50.1760    -5.1010 ha         1 ICK       0.112000
     36 N10         28.6380   -46.2230   -13.4860 ns         1 ICK      -0.395100
     37 Cl24        28.6390   -41.3060   -17.7220 cl         1 ICK      -0.150000
@<TRIPOS>BOND
     1     1     4 ar  
     2     1    18 1   
     3     1    20 ar  
     4     2    20 ar  
     5     2    21 ar  
     6     2    24 1   
     7     3     4 ar  
     8     3    21 ar  
     9     3    25 1   
    10     4    26 1   
    11     5     9 ar  
    12     5    22 ar  
    13     5    27 1   
    14     6     7 ar  
    15     6    22 ar  
    16     6    37 1   
    17     7     8 ar  
    18     7    28 1   
    19     8     9 ar  
    20     8    10 1   
    21     9    29 1   
    22    10    23 2   
    23    10    36 1   
    24    11    12 1   
    25    11    14 2   
    26    11    36 1   
    27    12    13 2   
    28    12    30 1   
    29    13    16 1   
    30    13    31 1   
    31    14    15 1   
    32    14    32 1   
    33    15    16 1   
    34    15    19 2   
    35    16    17 1   
    36    17    18 2   
    37    18    19 1   
    38    20    34 1   
    39    21    35 1   
    40    33    36 1   
@<TRIPOS>SUBSTRUCTURE
     1 ICK         1 TEMP              0 ****  ****    0 ROOT
