@<TRIPOS>MOLECULE
ICK
   37    40     1     0     0
SMALL
bcc


@<TRIPOS>ATOM
      1 C11         32.2420   -49.1260    -7.9960 ca         1 ICK      -0.110900
      2 C13         32.9990   -50.7400    -6.3710 ca         1 ICK      -0.141500
      3 C15         34.0260   -48.5700    -6.4700 ca         1 ICK      -0.141500
      4 C16         33.1840   -48.2180    -7.5140 ca         1 ICK      -0.089500
      5 C17         26.3070   -43.9410   -16.2680 ca         1 ICK       0.416200
      6 C19         28.2750   -43.1970   -17.0840 ca         1 ICK       0.501300
      7 C20         29.0090   -43.7680   -16.0580 ca         1 ICK      -0.181300
      8 C21         28.3100   -44.4890   -15.1000 ca         1 ICK      -0.112600
      9 C22         26.9260   -44.5750   -15.2040 ca         1 ICK      -0.233300
     10 C23         29.0870   -45.0930   -13.9710 c          1 ICK       0.684700
     11 C1          29.0990   -47.0720   -12.4930 cc         1 ICK       0.092600
     12 C2          28.4520   -48.3300   -12.3190 cc         1 ICK      -0.226000
     13 C3          28.8510   -49.1910   -11.3520 cd         1 ICK      -0.008300
     14 C4          30.1350   -46.7170   -11.6620 cd         1 ICK      -0.148000
     15 C5          30.5240   -47.6290   -10.6680 cd         1 ICK       0.014700
     16 N6          29.8780   -48.8290   -10.5500 na         1 ICK       0.180000
     17 N7          30.4100   -49.5460    -9.5540 nd         1 ICK      -0.599100
     18 C8          31.3650   -48.7460    -9.1050 cc         1 ICK       0.594900
     19 N9          31.4740   -47.5690    -9.7470 nc         1 ICK      -0.398300
     20 C12         32.1550   -50.3900    -7.4130 ca         1 ICK      -0.089500
     21 C14         33.9370   -49.8310    -5.8960 ca         1 ICK      -0.112000
     22 N18         26.9710   -43.2680   -17.2010 nb         1 ICK      -0.642000
     23 O25         30.0710   -44.5380   -13.5280 o          1 ICK      -0.547100
     24 H31         32.9250   -51.7240    -5.9280 ha         1 ICK       0.132500
     25 H33         34.7530   -47.8570    -6.1040 ha         1 ICK       0.132500
     26 H34         33.2580   -47.2340    -7.9590 ha         1 ICK       0.149000
     27 H35         25.2300   -43.9760   -16.3740 h4         1 ICK       0.032100
     28 H36         30.0840   -43.6650   -16.0150 ha         1 ICK       0.179000
     29 H37         26.3220   -45.0930   -14.4710 ha         1 ICK       0.148000
     30 H26         27.6320   -48.6190   -12.9630 ha         1 ICK       0.149000
     31 H27         28.4010   -50.1570   -11.1770 h4         1 ICK       0.182000
     32 H28         30.6630   -45.7830   -11.7360 ha         1 ICK       0.198000
     33 H29         27.8380   -46.6850   -14.0420 hn         1 ICK       0.326500
     34 H30         31.4300   -51.1050    -7.7790 ha         1 ICK       0.149000
     35 H32         34.5960   -50.1060    -5.0820 ha         1 ICK       0.130000
     36 N10         28.6050   -46.2820   -13.5240 ns         1 ICK      -0.462100
     37 CL24        29.1150   -42.3170   -18.3170 cl         1 ICK      -0.150000
@<TRIPOS>BOND
     1     1     4 ar  
     2     1    18 1   
     3     1    20 ar  
     4     2    20 ar  
     5     2    21 ar  
     6     2    24 1   
     7     3     4 ar  
     8     3    21 ar  
     9     3    25 1   
    10     4    26 1   
    11     5     9 ar  
    12     5    22 ar  
    13     5    27 1   
    14     6     7 ar  
    15     6    22 ar  
    16     6    37 1   
    17     7     8 ar  
    18     7    28 1   
    19     8     9 ar  
    20     8    10 1   
    21     9    29 1   
    22    10    23 2   
    23    10    36 1   
    24    11    12 1   
    25    11    14 2   
    26    11    36 1   
    27    12    13 2   
    28    12    30 1   
    29    13    16 1   
    30    13    31 1   
    31    14    15 1   
    32    14    32 1   
    33    15    16 1   
    34    15    19 2   
    35    16    17 1   
    36    17    18 2   
    37    18    19 1   
    38    20    34 1   
    39    21    35 1   
    40    33    36 1   
@<TRIPOS>SUBSTRUCTURE
     1 ICK         1 TEMP              0 ****  ****    0 ROOT
