@<TRIPOS>MOLECULE
ICL
   47    47     1     0     0
SMALL
No Charge or Current Charge


@<TRIPOS>ATOM
      1 C1           1.5870     0.0730     3.5750 c          1 ICL       0.582500
      2 O1           2.3530    -0.4660     4.3660 o          1 ICL      -0.493100
      3 C2           0.0810     0.0130     3.6690 ca         1 ICL      -0.205600
      4 C3          -0.5770     0.0180     4.9250 ca         1 ICL       0.176000
      5 Cl           0.2940     0.1380     6.4560 cl         1 ICL      -0.163000
      6 C4          -1.9770    -0.0290     4.9910 ca         1 ICL      -0.127000
      7 C5          -2.7410    -0.0840     3.8190 ca         1 ICL      -0.064000
      8 C6          -2.1030    -0.0800     2.5710 ca         1 ICL      -0.116000
      9 C7          -0.6950    -0.0200     2.4800 ca         1 ICL       0.005000
     10 N1          -0.0450    -0.0460     1.2130 ns         1 ICL      -0.183000
     11 C8          -0.4810     0.3340    -0.0510 c          1 ICL       0.590100
     12 O2          -1.5710     0.8600    -0.2580 o          1 ICL      -0.568100
     13 C9           0.5460     0.0600    -1.1930 c3         1 ICL       0.049700
     14 C10          1.8660     0.8820    -1.0240 c3         1 ICL      -0.067700
     15 C11          2.9710     0.4460    -2.0160 c3         1 ICL      -0.092600
     16 C12          1.6380     2.4130    -1.0890 c3         1 ICL      -0.092600
     17 N2          -0.0820     0.2890    -2.5160 ns         1 ICL      -0.494900
     18 C13          0.1140    -0.4760    -3.6280 c          1 ICL       0.656100
     19 O3           0.8140    -1.4740    -3.6690 o          1 ICL      -0.555000
     20 O4          -0.6210     0.0640    -4.6460 os         1 ICL      -0.473100
     21 C14         -0.6330    -0.4960    -5.9800 c3         1 ICL       0.225000
     22 C15         -1.5740     0.4350    -6.7760 c3         1 ICL      -0.109100
     23 C16          0.7960    -0.4420    -6.5800 c3         1 ICL      -0.109100
     24 C17         -1.2210    -1.9310    -5.9390 c3         1 ICL      -0.109100
     25 H1           1.9930     0.6060     2.6880 h4         1 ICL      -0.006800
     26 H4          -2.4730    -0.0210     5.9590 ha         1 ICL       0.135000
     27 H5          -3.8270    -0.1300     3.8760 ha         1 ICL       0.125000
     28 H6          -2.7190    -0.1440     1.6790 ha         1 ICL       0.136000
     29 HN1          0.8880    -0.4370     1.2310 hn         1 ICL       0.164000
     30 H9           0.7960    -1.0060    -1.1110 h1         1 ICL       0.095700
     31 H10          2.2620     0.6650    -0.0240 hc         1 ICL       0.043700
     32 H111         3.9180     0.9460    -1.7830 hc         1 ICL       0.042200
     33 H112         3.1390    -0.6360    -1.9600 hc         1 ICL       0.042200
     34 H113         2.7010     0.7000    -3.0480 hc         1 ICL       0.042200
     35 H121         1.2630     2.7150    -2.0750 hc         1 ICL       0.042200
     36 H122         0.9150     2.7390    -0.3320 hc         1 ICL       0.042200
     37 H123         2.5760     2.9500    -0.9060 hc         1 ICL       0.042200
     38 HN2         -0.7270     1.0620    -2.6260 hn         1 ICL       0.342500
     39 H151        -1.6610     0.1050    -7.8180 hc         1 ICL       0.050033
     40 H152        -2.5790     0.4420    -6.3370 hc         1 ICL       0.050033
     41 H153        -1.1940     1.4640    -6.7770 hc         1 ICL       0.050033
     42 H161         1.2400     0.5510    -6.4380 hc         1 ICL       0.050033
     43 H162         1.4600    -1.1860    -6.1250 hc         1 ICL       0.050033
     44 H163         0.7660    -0.6490    -7.6560 hc         1 ICL       0.050033
     45 H171        -2.1510    -1.9540    -5.3580 hc         1 ICL       0.050033
     46 H172        -1.4480    -2.2790    -6.9530 hc         1 ICL       0.050033
     47 H173        -0.5200    -2.6490    -5.5000 hc         1 ICL       0.050033
@<TRIPOS>BOND
     1     1     2 2   
     2     1     3 1   
     3     1    25 1   
     4     3     4 ar  
     5     3     9 ar  
     6     4     5 1   
     7     4     6 ar  
     8     6     7 ar  
     9     6    26 1   
    10     7     8 ar  
    11     7    27 1   
    12     8     9 ar  
    13     8    28 1   
    14     9    10 1   
    15    10    11 1   
    16    10    29 1   
    17    11    12 2   
    18    11    13 1   
    19    13    14 1   
    20    13    17 1   
    21    13    30 1   
    22    14    15 1   
    23    14    16 1   
    24    14    31 1   
    25    15    32 1   
    26    15    33 1   
    27    15    34 1   
    28    16    35 1   
    29    16    36 1   
    30    16    37 1   
    31    17    18 1   
    32    17    38 1   
    33    18    19 2   
    34    18    20 1   
    35    20    21 1   
    36    21    22 1   
    37    21    23 1   
    38    21    24 1   
    39    22    39 1   
    40    22    40 1   
    41    22    41 1   
    42    23    42 1   
    43    23    43 1   
    44    23    44 1   
    45    24    45 1   
    46    24    46 1   
    47    24    47 1   
@<TRIPOS>SUBSTRUCTURE
     1 ICL         1 TEMP              0 ****  ****    0 ROOT
