@<TRIPOS>MOLECULE
ICL
   47    47     1     0     0
SMALL
abcg2


@<TRIPOS>ATOM
      1 C1           1.3370     0.7880     3.3620 c          1 ICL       0.582500
      2 O1           2.0570     1.0090     4.3040 o          1 ICL      -0.493100
      3 C2          -0.0340     0.2400     3.4360 ca         1 ICL      -0.205600
      4 C3          -0.8090     0.2430     4.6030 ca         1 ICL       0.176000
      5 CL          -0.1990     0.8380     6.1030 cl         1 ICL      -0.163000
      6 C4          -2.1210    -0.1980     4.5940 ca         1 ICL      -0.127000
      7 C5          -2.6750    -0.6730     3.4160 ca         1 ICL      -0.064000
      8 C6          -1.9280    -0.7170     2.2520 ca         1 ICL      -0.116000
      9 C7          -0.6170    -0.2650     2.2610 ca         1 ICL       0.005000
     10 N1           0.1520    -0.3420     1.0820 ns         1 ICL      -0.183000
     11 C8          -0.2110     0.2450    -0.0890 c          1 ICL       0.590100
     12 O2          -1.2250     0.9000    -0.2140 o          1 ICL      -0.568100
     13 C9           0.8000     0.0550    -1.2170 c3         1 ICL       0.049700
     14 C10          2.1030     0.8350    -0.9270 c3         1 ICL      -0.067700
     15 C11          3.1270     0.5900    -2.0270 c3         1 ICL      -0.092600
     16 C12          1.8610     2.3270    -0.7270 c3         1 ICL      -0.092600
     17 N2           0.1990     0.4270    -2.4650 ns         1 ICL      -0.494900
     18 C13          0.1100    -0.4160    -3.5180 c          1 ICL       0.656100
     19 O3           0.5520    -1.5460    -3.5320 o          1 ICL      -0.555000
     20 O4          -0.5250     0.1830    -4.5230 os         1 ICL      -0.473100
     21 C14         -0.7600    -0.4690    -5.8000 c3         1 ICL       0.225000
     22 C15         -1.4940     0.6000    -6.6010 c3         1 ICL      -0.109100
     23 C16          0.5550    -0.8180    -6.4860 c3         1 ICL      -0.109100
     24 C17         -1.6590    -1.6880    -5.6330 c3         1 ICL      -0.109100
     25 H1           1.6750     1.0090     2.3380 h4         1 ICL      -0.006800
     26 H4          -2.7060    -0.1780     5.5030 ha         1 ICL       0.135000
     27 H5          -3.6970    -1.0270     3.4150 ha         1 ICL       0.125000
     28 H6          -2.3540    -1.1250     1.3470 ha         1 ICL       0.136000
     29 HN1          0.9870    -0.9100     1.0970 hn         1 ICL       0.164000
     30 H9           1.0540    -1.0060    -1.2760 h1         1 ICL       0.095700
     31 H10          2.5180     0.4300     0.0020 hc         1 ICL       0.043700
     32 H111         4.0790     1.0500    -1.7630 hc         1 ICL       0.042200
     33 H112         3.3040    -0.4750    -2.1850 hc         1 ICL       0.042200
     34 H113         2.8040     1.0240    -2.9750 hc         1 ICL       0.042200
     35 H121         1.4650     2.7950    -1.6300 hc         1 ICL       0.042200
     36 H122         1.1670     2.5370     0.0890 hc         1 ICL       0.042200
     37 H123         2.7990     2.8300    -0.4890 hc         1 ICL       0.042200
     38 HN2         -0.2470     1.3280    -2.5320 hn         1 ICL       0.342500
     39 H151        -1.7360     0.2150    -7.5910 hc         1 ICL       0.050033
     40 H152        -2.4280     0.8850    -6.1160 hc         1 ICL       0.050033
     41 H153        -0.8830     1.4950    -6.7290 hc         1 ICL       0.050033
     42 H161         1.2180     0.0490    -6.5180 hc         1 ICL       0.050033
     43 H162         1.0780    -1.6370    -5.9970 hc         1 ICL       0.050033
     44 H163         0.3550    -1.1170    -7.5150 hc         1 ICL       0.050033
     45 H171        -2.5750    -1.4250    -5.1010 hc         1 ICL       0.050033
     46 H172        -1.9470    -2.0570    -6.6180 hc         1 ICL       0.050033
     47 H173        -1.1680    -2.5010    -5.1030 hc         1 ICL       0.050033
@<TRIPOS>BOND
     1     1     2 2   
     2     1     3 1   
     3     1    25 1   
     4     3     4 ar  
     5     3     9 ar  
     6     4     5 1   
     7     4     6 ar  
     8     6     7 ar  
     9     6    26 1   
    10     7     8 ar  
    11     7    27 1   
    12     8     9 ar  
    13     8    28 1   
    14     9    10 1   
    15    10    11 1   
    16    10    29 1   
    17    11    12 2   
    18    11    13 1   
    19    13    14 1   
    20    13    17 1   
    21    13    30 1   
    22    14    15 1   
    23    14    16 1   
    24    14    31 1   
    25    15    32 1   
    26    15    33 1   
    27    15    34 1   
    28    16    35 1   
    29    16    36 1   
    30    16    37 1   
    31    17    18 1   
    32    17    38 1   
    33    18    19 2   
    34    18    20 1   
    35    20    21 1   
    36    21    22 1   
    37    21    23 1   
    38    21    24 1   
    39    22    39 1   
    40    22    40 1   
    41    22    41 1   
    42    23    42 1   
    43    23    43 1   
    44    23    44 1   
    45    24    45 1   
    46    24    46 1   
    47    24    47 1   
@<TRIPOS>SUBSTRUCTURE
     1 ICL         1 TEMP              0 ****  ****    0 ROOT
