@<TRIPOS>MOLECULE
ICN
   19    18     1     0     0
SMALL
No Charge or Current Charge


@<TRIPOS>ATOM
      1 C1           0.9600     1.8950     0.0510 c3         1 ICN      -0.088600
      2 C2           0.9070     0.4410    -0.5000 c3         1 ICN      -0.084700
      3 C3           2.3260    -0.1930    -0.4200 c3         1 ICN      -0.088600
      4 C4          -0.2330    -0.4490     0.1320 c3         1 ICN       0.262100
      5 C5          -0.0540    -0.6670     1.6580 c3         1 ICN      -0.081100
      6 O6          -0.1780    -1.7500    -0.4790 oh         1 ICN      -0.641000
      7 C7          -1.5730     0.1480    -0.1210 c1         1 ICN       0.264900
      8 N8          -2.6270     0.5970    -0.3430 n1         1 ICN      -0.455000
      9 H11          1.7130     2.4810    -0.4900 hc         1 ICN       0.041200
     10 H12          0.0000     2.4110    -0.0700 hc         1 ICN       0.041200
     11 H13          1.2290     1.9100     1.1140 hc         1 ICN       0.041200
     12 H2           0.6790     0.5320    -1.5710 hc         1 ICN       0.049700
     13 H31          2.6710    -0.2710     0.6170 hc         1 ICN       0.041200
     14 H32          2.3480    -1.1930    -0.8680 hc         1 ICN       0.041200
     15 H33          3.0510     0.4240    -0.9650 hc         1 ICN       0.041200
     16 H51         -0.0990     0.2810     2.2060 hc         1 ICN       0.054367
     17 H52         -0.8450    -1.3170     2.0520 hc         1 ICN       0.054367
     18 H53          0.9050    -1.1470     1.8810 hc         1 ICN       0.054367
     19 H6          -0.3320    -1.6220    -1.4400 ho         1 ICN       0.453000
@<TRIPOS>BOND
     1     1     2 1   
     2     1     9 1   
     3     1    10 1   
     4     1    11 1   
     5     2     3 1   
     6     2     4 1   
     7     2    12 1   
     8     3    13 1   
     9     3    14 1   
    10     3    15 1   
    11     4     5 1   
    12     4     6 1   
    13     4     7 1   
    14     5    16 1   
    15     5    17 1   
    16     5    18 1   
    17     6    19 1   
    18     7     8 3   
@<TRIPOS>SUBSTRUCTURE
     1 ICN         1 TEMP              0 ****  ****    0 ROOT
