@<TRIPOS>MOLECULE
ICN
   19    18     1     0     0
SMALL
abcg2


@<TRIPOS>ATOM
      1 C1           0.9200     1.8530     0.0580 c3         1 ICN      -0.088600
      2 C2           0.9020     0.4410    -0.5160 c3         1 ICN      -0.084700
      3 C3           2.2800    -0.2040    -0.4020 c3         1 ICN      -0.088600
      4 C4          -0.1950    -0.4480     0.1180 c3         1 ICN       0.262100
      5 C5          -0.0270    -0.6510     1.6200 c3         1 ICN      -0.081100
      6 O6          -0.2400    -1.7240    -0.4690 oh         1 ICN      -0.641000
      7 C7          -1.5130     0.2020    -0.1110 c1         1 ICN       0.264900
      8 N8          -2.5410     0.6820    -0.3000 n1         1 ICN      -0.455000
      9 H11          1.6560     2.4550    -0.4750 hc         1 ICN       0.041200
     10 H12         -0.0410     2.3600    -0.0390 hc         1 ICN       0.041200
     11 H13          1.1990     1.8570     1.1130 hc         1 ICN       0.041200
     12 H2           0.6540     0.5210    -1.5810 hc         1 ICN       0.049700
     13 H31          2.6280    -0.2390     0.6310 hc         1 ICN       0.041200
     14 H32          2.3000    -1.2170    -0.8020 hc         1 ICN       0.041200
     15 H33          3.0040     0.3840    -0.9670 hc         1 ICN       0.041200
     16 H51         -0.1000     0.2900     2.1620 hc         1 ICN       0.054367
     17 H52         -0.7990    -1.3190     2.0020 hc         1 ICN       0.054367
     18 H53          0.9450    -1.0950     1.8300 hc         1 ICN       0.054367
     19 H6          -0.1840    -1.6360    -1.4280 ho         1 ICN       0.453000
@<TRIPOS>BOND
     1     1     2 1   
     2     1     9 1   
     3     1    10 1   
     4     1    11 1   
     5     2     3 1   
     6     2     4 1   
     7     2    12 1   
     8     3    13 1   
     9     3    14 1   
    10     3    15 1   
    11     4     5 1   
    12     4     6 1   
    13     4     7 1   
    14     5    16 1   
    15     5    17 1   
    16     5    18 1   
    17     6    19 1   
    18     7     8 3   
@<TRIPOS>SUBSTRUCTURE
     1 ICN         1 TEMP              0 ****  ****    0 ROOT
