@<TRIPOS>MOLECULE
ICO
   18    19     1     0     0
SMALL
bcc


@<TRIPOS>ATOM
      1 CAA         -0.3560     0.2060     0.0110 ca         1 ICO      -0.065800
      2 CAD         -0.9130     1.4910     0.0260 ca         1 ICO      -0.044000
      3 CAI         -2.2880     1.6290     0.0300 ca         1 ICO      -0.202000
      4 CAJ         -3.1320     0.5070     0.0200 ca         1 ICO      -0.132000
      5 CAF         -2.6150    -0.7740     0.0060 ca         1 ICO      -0.173000
      6 CAB         -1.2280    -0.9070     0.0010 ca         1 ICO      -0.073200
      7 NAE         -0.4520    -2.0320    -0.0110 na         1 ICO      -0.198400
      8 CAG          0.8620    -1.6750    -0.0090 cc         1 ICO      -0.121100
      9 CAC          0.9850    -0.3110     0.0050 cd         1 ICO      -0.163400
     10 CAH          2.2770     0.4410     0.0140 c          1 ICO       0.941800
     11 OAL          3.3250    -0.2400     0.0110 o          1 ICO      -0.838300
     12 OAK          2.2040     1.6890     0.0230 o          1 ICO      -0.838300
     13 HAD         -0.2650     2.3570     0.0340 ha         1 ICO       0.163000
     14 HAI         -2.7260     2.6200     0.0420 ha         1 ICO       0.107000
     15 HAJ         -4.2060     0.6480     0.0250 ha         1 ICO       0.100000
     16 HAF         -3.2650    -1.6400    -0.0010 ha         1 ICO       0.105000
     17 HAE         -0.7910    -2.9790    -0.0180 hn         1 ICO       0.270700
     18 HAG          1.6320    -2.4290    -0.0160 h4         1 ICO       0.162000
@<TRIPOS>BOND
     1     1     2 ar  
     2     1     6 ar  
     3     1     9 1   
     4     2     3 ar  
     5     2    13 1   
     6     3     4 ar  
     7     3    14 1   
     8     4     5 ar  
     9     4    15 1   
    10     5     6 ar  
    11     5    16 1   
    12     6     7 1   
    13     7     8 1   
    14     7    17 1   
    15     8     9 2   
    16     8    18 1   
    17     9    10 1   
    18    10    11 1   
    19    10    12 1   
@<TRIPOS>SUBSTRUCTURE
     1 ICO         1 TEMP              0 ****  ****    0 ROOT
