@<TRIPOS>MOLECULE
ICO
   18    19     1     0     0
SMALL
No Charge or Current Charge


@<TRIPOS>ATOM
      1 CAA         -0.3870     0.1960     0.0130 ca         1 ICO      -0.065800
      2 CAD         -0.8990     1.5040     0.0270 ca         1 ICO      -0.026000
      3 CAI         -2.3030     1.6600     0.0300 ca         1 ICO      -0.184000
      4 CAJ         -3.1530     0.5280     0.0200 ca         1 ICO      -0.114000
      5 CAF         -2.6060    -0.7720     0.0060 ca         1 ICO      -0.155000
      6 CAB         -1.2110    -0.8980     0.0030 ca         1 ICO      -0.073200
      7 NAE         -0.4510    -2.0550    -0.0100 na         1 ICO      -0.248700
      8 CAG          0.9220    -1.7320    -0.0080 cc         1 ICO      -0.171100
      9 CAC          0.9650    -0.3380     0.0060 cd         1 ICO      -0.163400
     10 CAH          2.2440     0.4430     0.0130 c          1 ICO       0.731200
     11 OAL          3.3010    -0.1730     0.0050 o          1 ICO      -0.733000
     12 OAK          2.2020     1.6650     0.0250 o          1 ICO      -0.733000
     13 HAD         -0.2460     2.3720     0.0350 ha         1 ICO       0.145000
     14 HAI         -2.7340     2.6590     0.0410 ha         1 ICO       0.089000
     15 HAJ         -4.2320     0.6610     0.0220 ha         1 ICO       0.082000
     16 HAF         -3.2500    -1.6490    -0.0020 ha         1 ICO       0.087000
     17 HAE         -0.8320    -2.9960    -0.0190 hn         1 ICO       0.321000
     18 HAG          1.7170    -2.4730    -0.0160 h4         1 ICO       0.212000
@<TRIPOS>BOND
     1     1     2 ar  
     2     1     6 ar  
     3     1     9 1   
     4     2     3 ar  
     5     2    13 1   
     6     3     4 ar  
     7     3    14 1   
     8     4     5 ar  
     9     4    15 1   
    10     5     6 ar  
    11     5    16 1   
    12     6     7 1   
    13     7     8 1   
    14     7    17 1   
    15     8     9 2   
    16     8    18 1   
    17     9    10 1   
    18    10    11 1   
    19    10    12 1   
@<TRIPOS>SUBSTRUCTURE
     1 ICO         1 TEMP              0 ****  ****    0 ROOT
