@<TRIPOS>MOLECULE
ICP
   16    16     1     0     0
SMALL
abcg2


@<TRIPOS>ATOM
      1 N1A          1.2750     0.1480     1.0430 nc         1 ICP      -0.697000
      2 C2A         -0.0720     0.0190     1.4050 cc         1 ICP       0.668300
      3 CM2         -0.2920     0.0180     2.8770 c3         1 ICP      -0.125400
      4 N3A         -1.0720    -0.0920     0.6120 nd         1 ICP      -0.748000
      5 C4A         -0.8670    -0.0930    -0.7670 cd         1 ICP       0.658600
      6 N4A         -1.8320    -0.1880    -1.5870 n2         1 ICP      -0.733100
      7 C5A          0.5280     0.0210    -1.2430 cd         1 ICP      -0.350200
      8 C6A          1.5340     0.1450    -0.2080 cd         1 ICP       0.520500
      9 C7A          0.8900     0.0170    -2.5320 c2         1 ICP      -0.179000
     10 HM21         0.2870    -0.7840     3.3390 hc         1 ICP       0.063033
     11 HM22         0.0710     0.9540     3.3080 hc         1 ICP       0.063033
     12 HM23        -1.3430    -0.1060     3.1230 hc         1 ICP       0.063033
     13 HN4         -2.7080    -0.2570    -1.0730 hn         1 ICP       0.403400
     14 H6A1         2.5730     0.2390    -0.5160 h4         1 ICP       0.028800
     15 H7A1         1.9300     0.1080    -2.8180 ha         1 ICP       0.182500
     16 H7A2         0.1630    -0.0760    -3.3260 ha         1 ICP       0.182500
@<TRIPOS>BOND
     1     1     2 1   
     2     1     8 2   
     3     2     3 1   
     4     2     4 2   
     5     3    10 1   
     6     3    11 1   
     7     3    12 1   
     8     4     5 1   
     9     5     6 2   
    10     5     7 1   
    11     6    13 1   
    12     7     8 1   
    13     7     9 2   
    14     8    14 1   
    15     9    15 1   
    16     9    16 1   
@<TRIPOS>SUBSTRUCTURE
     1 ICP         1 TEMP              0 ****  ****    0 ROOT
