@<TRIPOS>MOLECULE
ICP
   16    16     1     0     0
SMALL
No Charge or Current Charge


@<TRIPOS>ATOM
      1 N1A          1.2620     0.1370     1.0500 nc         1 ICP      -0.697000
      2 C2A         -0.0610     0.0180     1.3790 cc         1 ICP       0.668300
      3 CM2         -0.3210     0.0230     2.8550 c3         1 ICP      -0.125400
      4 N3A         -1.1060    -0.0970     0.5770 nd         1 ICP      -0.748000
      5 C4A         -0.7670    -0.0910    -0.7310 cd         1 ICP       0.658600
      6 N4A         -1.7700    -0.2020    -1.5040 n2         1 ICP      -0.733100
      7 C5A          0.5500     0.0240    -1.2410 cd         1 ICP      -0.350200
      8 C6A          1.5430     0.1380    -0.2390 cd         1 ICP       0.520500
      9 C7A          0.8710     0.0270    -2.5780 c2         1 ICP      -0.179000
     10 HM21         0.2000    -0.8100     3.3410 hc         1 ICP       0.063033
     11 HM22         0.0330     0.9570     3.3050 hc         1 ICP       0.063033
     12 HM23        -1.3900    -0.0740     3.0790 hc         1 ICP       0.063033
     13 HN4         -2.5950    -0.2680    -0.8950 hn         1 ICP       0.403400
     14 H6A1         2.5970     0.2330    -0.4690 h4         1 ICP       0.028800
     15 H7A1         1.9010     0.1180    -2.9290 ha         1 ICP       0.182500
     16 H7A2         0.1170    -0.0600    -3.3630 ha         1 ICP       0.182500
@<TRIPOS>BOND
     1     1     2 1   
     2     1     8 2   
     3     2     3 1   
     4     2     4 2   
     5     3    10 1   
     6     3    11 1   
     7     3    12 1   
     8     4     5 1   
     9     5     6 2   
    10     5     7 1   
    11     6    13 1   
    12     7     8 1   
    13     7     9 2   
    14     8    14 1   
    15     9    15 1   
    16     9    16 1   
@<TRIPOS>SUBSTRUCTURE
     1 ICP         1 TEMP              0 ****  ****    0 ROOT
