@<TRIPOS>MOLECULE
ICT
   18    17     1     0     0
SMALL
No Charge or Current Charge


@<TRIPOS>ATOM
      1 C1          35.3760    34.5820    69.4380 c          1 ICT       0.753000
      2 O1          35.7800    35.5770    68.8460 o          1 ICT      -0.772500
      3 O2          34.3530    33.9940    69.1020 o          1 ICT      -0.772500
      4 C2          36.2900    33.9710    70.5870 c3         1 ICT       0.065300
      5 O7          36.3390    32.5210    70.6010 oh         1 ICT      -0.675000
      6 C3          35.8420    34.4740    71.9920 c3         1 ICT      -0.188700
      7 C4          36.9030    34.2570    73.1270 c3         1 ICT      -0.166400
      8 C5          38.1400    35.1730    72.9550 c          1 ICT       0.703000
      9 O3          39.1250    34.7340    72.3810 o          1 ICT      -0.789000
     10 O4          38.0800    36.3120    73.3950 o          1 ICT      -0.789000
     11 C6          34.4640    33.8920    72.3850 c          1 ICT       0.725000
     12 O5          33.5390    34.6690    72.5740 o          1 ICT      -0.782500
     13 O6          34.3520    32.6790    72.5050 o          1 ICT      -0.782500
     14 H2          37.3020    34.3510    70.3980 h1         1 ICT       0.000700
     15 HO7         35.6090    32.2650    71.2200 ho         1 ICT       0.398000
     16 H3          35.7060    35.5590    71.9120 hc         1 ICT       0.071700
     17 H41         36.3770    34.5340    74.0490 hc         1 ICT       0.000700
     18 H42         37.1920    33.1990    73.1020 hc         1 ICT       0.000700
@<TRIPOS>BOND
     1     1     2 1   
     2     1     3 1   
     3     1     4 1   
     4     4     5 1   
     5     4     6 1   
     6     4    14 1   
     7     5    15 1   
     8     6     7 1   
     9     6    11 1   
    10     6    16 1   
    11     7     8 1   
    12     7    17 1   
    13     7    18 1   
    14     8     9 1   
    15     8    10 1   
    16    11    12 1   
    17    11    13 1   
@<TRIPOS>SUBSTRUCTURE
     1 ICT         1 TEMP              0 ****  ****    0 ROOT
