@<TRIPOS>MOLECULE
ICT
   18    17     1     0     0
SMALL
abcg2


@<TRIPOS>ATOM
      1 C1          35.2900    34.7260    69.5030 c          1 ICT       0.753000
      2 O1          35.3650    35.9730    69.4490 o          1 ICT      -0.772500
      3 O2          34.6470    33.9850    68.7380 o          1 ICT      -0.772500
      4 C2          36.1500    34.0760    70.6100 c3         1 ICT       0.065300
      5 O7          36.1310    32.6670    70.4740 oh         1 ICT      -0.675000
      6 C3          35.7560    34.5170    72.0310 c3         1 ICT      -0.188700
      7 C4          36.8450    34.1730    73.0460 c3         1 ICT      -0.166400
      8 C5          38.1800    34.9190    72.8590 c          1 ICT       0.703000
      9 O3          39.2250    34.2670    73.0670 o          1 ICT      -0.789000
     10 O4          38.1190    36.1310    72.5590 o          1 ICT      -0.789000
     11 C6          34.3670    33.9470    72.4010 c          1 ICT       0.725000
     12 O5          33.3890    34.4520    71.8100 o          1 ICT      -0.782500
     13 O6          34.3130    33.0360    73.2540 o          1 ICT      -0.782500
     14 H2          37.1740    34.4500    70.4350 h1         1 ICT       0.000700
     15 HO7         36.6330    32.3000    71.2070 ho         1 ICT       0.398000
     16 H3          35.6740    35.6060    71.9970 hc         1 ICT       0.071700
     17 H41         36.4770    34.4220    74.0480 hc         1 ICT       0.000700
     18 H42         37.0320    33.0960    73.0810 hc         1 ICT       0.000700
@<TRIPOS>BOND
     1     1     2 1   
     2     1     3 1   
     3     1     4 1   
     4     4     5 1   
     5     4     6 1   
     6     4    14 1   
     7     5    15 1   
     8     6     7 1   
     9     6    11 1   
    10     6    16 1   
    11     7     8 1   
    12     7    17 1   
    13     7    18 1   
    14     8     9 1   
    15     8    10 1   
    16    11    12 1   
    17    11    13 1   
@<TRIPOS>SUBSTRUCTURE
     1 ICT         1 TEMP              0 ****  ****    0 ROOT
