@<TRIPOS>MOLECULE
ICU
   31    31     1     0     0
SMALL
abcg2


@<TRIPOS>ATOM
      1 C1          -1.2760     1.7270     1.3970 c          1 ICU       0.714600
      2 O1          -1.2150     2.5030     0.4220 o          1 ICU      -0.712000
      3 OXT         -2.1540     1.7070     2.2760 o          1 ICU      -0.712000
      4 C2          -0.1360     0.7200     1.5610 ca         1 ICU      -0.062600
      5 C3           0.2880     0.4600     2.8600 ca         1 ICU      -0.157000
      6 C4           1.3510    -0.4010     3.1420 ca         1 ICU       0.267000
      7 N1           1.8040    -0.5710     4.4320 nv         1 ICU      -1.082000
      8 C5           1.9680    -1.0530     2.0700 ca         1 ICU      -0.210000
      9 C6           1.5320    -0.8260     0.7790 ca         1 ICU      -0.070000
     10 C7           0.5010     0.0700     0.4970 ca         1 ICU      -0.121300
     11 C8           0.0540     0.2240    -0.9360 c3         1 ICU       0.166600
     12 O2           1.2110     0.3870    -1.7460 os         1 ICU      -0.424100
     13 C9           1.0160     0.6220    -3.0430 c          1 ICU       0.599100
     14 O3          -0.0810     0.7190    -3.5340 o          1 ICU      -0.492000
     15 C10          2.3140     0.7460    -3.7800 c3         1 ICU      -0.155100
     16 C11         -0.6820    -1.0380    -1.3470 c          1 ICU       0.582100
     17 O4          -0.1850    -1.9610    -1.9400 o          1 ICU      -0.522000
     18 O5          -1.9270    -1.0060    -0.9110 os         1 ICU      -0.399100
     19 C12         -2.7340    -2.1640    -1.1290 c3         1 ICU       0.152900
     20 H3          -0.2190     0.9520     3.6820 ha         1 ICU       0.126000
     21 HN11         2.3010    -1.4290     4.6120 hn         1 ICU       0.432000
     22 HN12         1.1370    -0.3670     5.1600 hn         1 ICU       0.432000
     23 H5           2.7840    -1.7430     2.2490 ha         1 ICU       0.088000
     24 H6           2.0140    -1.3670    -0.0260 ha         1 ICU       0.104000
     25 H8          -0.6040     1.0880    -1.0250 h1         1 ICU       0.158700
     26 H101         2.1370     0.9930    -4.8230 hc         1 ICU       0.060700
     27 H102         2.9410     1.5150    -3.3290 hc         1 ICU       0.060700
     28 H103         2.8660    -0.1930    -3.7270 hc         1 ICU       0.060700
     29 H121        -3.7010    -1.9410    -0.6890 h1         1 ICU       0.038367
     30 H122        -2.8580    -2.3660    -2.1920 h1         1 ICU       0.038367
     31 H123        -2.3090    -3.0420    -0.6420 h1         1 ICU       0.038367
@<TRIPOS>BOND
     1     1     2 1   
     2     1     3 1   
     3     1     4 1   
     4     4     5 ar  
     5     4    10 ar  
     6     5     6 ar  
     7     5    20 1   
     8     6     7 1   
     9     6     8 ar  
    10     7    21 1   
    11     7    22 1   
    12     8     9 ar  
    13     8    23 1   
    14     9    10 ar  
    15     9    24 1   
    16    10    11 1   
    17    11    12 1   
    18    11    16 1   
    19    11    25 1   
    20    12    13 1   
    21    13    14 2   
    22    13    15 1   
    23    15    26 1   
    24    15    27 1   
    25    15    28 1   
    26    16    17 2   
    27    16    18 1   
    28    18    19 1   
    29    19    29 1   
    30    19    30 1   
    31    19    31 1   
@<TRIPOS>SUBSTRUCTURE
     1 ICU         1 TEMP              0 ****  ****    0 ROOT
