@<TRIPOS>MOLECULE
ICU
   31    31     1     0     0
SMALL
No Charge or Current Charge


@<TRIPOS>ATOM
      1 C1          -0.9990     1.9550     1.3030 c          1 ICU       0.714600
      2 O1          -0.7100     2.8010     0.4690 o          1 ICU      -0.712000
      3 OXT         -2.0180     1.9970     1.9780 o          1 ICU      -0.712000
      4 C2          -0.0180     0.8270     1.5610 ca         1 ICU      -0.062600
      5 C3           0.4330     0.6220     2.8860 ca         1 ICU      -0.157000
      6 C4           1.3470    -0.3930     3.1900 ca         1 ICU       0.267000
      7 N1           1.7770    -0.5760     4.4750 nv         1 ICU      -1.082000
      8 C5           1.8270    -1.2240     2.1740 ca         1 ICU      -0.210000
      9 C6           1.3880    -1.0450     0.8530 ca         1 ICU      -0.070000
     10 C7           0.4630    -0.0290     0.5290 ca         1 ICU      -0.121300
     11 C8          -0.0070     0.0880    -0.9310 c3         1 ICU       0.166600
     12 O2           1.1620     0.3830    -1.7430 os         1 ICU      -0.424100
     13 C9           0.9700     0.7420    -3.0500 c          1 ICU       0.599100
     14 O3          -0.1240     0.8970    -3.5750 o          1 ICU      -0.492000
     15 C10          2.2920     0.9940    -3.7630 c3         1 ICU      -0.155100
     16 C11         -0.7330    -1.2110    -1.3830 c          1 ICU       0.582100
     17 O4          -0.2490    -2.0610    -2.1260 o          1 ICU      -0.522000
     18 O5          -2.0040    -1.2800    -0.8680 os         1 ICU      -0.399100
     19 C12         -2.8090    -2.4250    -1.1980 c3         1 ICU       0.152900
     20 H3           0.0670     1.2690     3.6790 ha         1 ICU       0.126000
     21 HN11         2.3420    -1.3910     4.7080 hn         1 ICU       0.432000
     22 HN12         1.3370    -0.0670     5.2390 hn         1 ICU       0.432000
     23 H5           2.5390    -2.0130     2.4000 ha         1 ICU       0.088000
     24 H6           1.7680    -1.7040     0.0740 ha         1 ICU       0.104000
     25 H8          -0.7560     0.8800    -1.0340 h1         1 ICU       0.158700
     26 H101         2.1580     1.3200    -4.8000 hc         1 ICU       0.060700
     27 H102         2.8770     1.7150    -3.1800 hc         1 ICU       0.060700
     28 H103         2.9070     0.0890    -3.6950 hc         1 ICU       0.060700
     29 H121        -3.7940    -2.3490    -0.7200 h1         1 ICU       0.038367
     30 H122        -2.9620    -2.4950    -2.2830 h1         1 ICU       0.038367
     31 H123        -2.3320    -3.3510    -0.8510 h1         1 ICU       0.038367
@<TRIPOS>BOND
     1     1     2 1   
     2     1     3 1   
     3     1     4 1   
     4     4     5 ar  
     5     4    10 ar  
     6     5     6 ar  
     7     5    20 1   
     8     6     7 1   
     9     6     8 ar  
    10     7    21 1   
    11     7    22 1   
    12     8     9 ar  
    13     8    23 1   
    14     9    10 ar  
    15     9    24 1   
    16    10    11 1   
    17    11    12 1   
    18    11    16 1   
    19    11    25 1   
    20    12    13 1   
    21    13    14 2   
    22    13    15 1   
    23    15    26 1   
    24    15    27 1   
    25    15    28 1   
    26    16    17 2   
    27    16    18 1   
    28    18    19 1   
    29    19    29 1   
    30    19    30 1   
    31    19    31 1   
@<TRIPOS>SUBSTRUCTURE
     1 ICU         1 TEMP              0 ****  ****    0 ROOT
