@<TRIPOS>MOLECULE
ICV
   49    52     1     0     0
SMALL
abcg2


@<TRIPOS>ATOM
      1 C1         -41.1470     2.1520   -17.2430 ca         1 ICV      -0.136800
      2 C2         -41.9460     2.9270   -16.3750 ca         1 ICV       0.369500
      3 C7         -41.1730     0.5160   -15.5350 ca         1 ICV      -0.179000
      4 C8         -41.9650     1.3820   -14.7710 ca         1 ICV       0.359900
      5 C10        -40.0280    -2.5240   -17.5350 c5         1 ICV       0.047400
      6 C11        -39.1580    -3.4680   -16.7180 c          1 ICV       0.568000
      7 C13        -38.4320    -1.3240   -16.3160 c          1 ICV       0.618000
      8 C15        -37.1840    -3.1790   -15.2610 ca         1 ICV       0.041000
      9 C16        -39.8040    -2.8100   -19.0200 c3         1 ICV      -0.096100
     10 C21        -36.2530    -4.0400   -15.8300 ca         1 ICV      -0.118000
     11 C22        -35.1820    -4.4870   -15.0790 ca         1 ICV       0.007000
     12 C24        -36.0000    -3.2210   -13.1760 ca         1 ICV       0.007000
     13 C27        -32.4810    -3.1950   -13.0820 c3         1 ICV       0.145000
     14 F28        -32.9240    -2.1000   -12.4890 f          1 ICV      -0.098667
     15 F29        -31.3150    -3.5420   -12.5670 f          1 ICV      -0.098667
     16 F30        -32.3410    -2.9680   -14.3770 f          1 ICV      -0.098667
     17 O31        -33.9930    -4.5930   -11.4080 o          1 ICV      -0.469500
     18 O32        -33.0440    -5.7330   -13.4610 o          1 ICV      -0.469500
     19 C23        -35.0640    -4.0630   -13.7620 ca         1 ICV      -0.286500
     20 C25        -37.0710    -2.7810   -13.9340 ca         1 ICV      -0.118000
     21 N12        -38.2440    -2.6930   -16.0500 n          1 ICV      -0.233000
     22 O19        -37.7430    -0.4370   -15.8710 o          1 ICV      -0.519000
     23 O18        -39.2440    -4.6670   -16.6670 o          1 ICV      -0.481000
     24 C17        -41.4960    -2.6790   -17.1580 c3         1 ICV      -0.096100
     25 N14        -39.4890    -1.2280   -17.1410 n          1 ICV      -0.419800
     26 C6         -40.7490     0.8880   -16.7980 ca         1 ICV      -0.018300
     27 N9         -42.3610     2.5800   -15.1660 nb         1 ICV      -0.674000
     28 C5         -40.9500     2.9250   -18.4280 cc         1 ICV      -0.244200
     29 C4         -41.6180     4.1000   -18.2350 cd         1 ICV      -0.146100
     30 N3         -42.2150     4.1030   -17.0060 na         1 ICV      -0.324400
     31 H1         -40.9110    -0.4460   -15.1150 ha         1 ICV       0.121000
     32 H2         -42.2880     1.0690   -13.7840 h4         1 ICV       0.020100
     33 H3         -40.1080    -3.8290   -19.2520 hc         1 ICV       0.057200
     34 H4         -40.4070    -2.1390   -19.6320 hc         1 ICV       0.057200
     35 H5         -38.7570    -2.6860   -19.2990 hc         1 ICV       0.057200
     36 H6         -39.0250     0.5990   -18.0130 h1         1 ICV       0.070700
     37 H7         -40.4620    -0.1720   -18.6170 h1         1 ICV       0.070700
     38 H8         -36.3450    -4.3400   -16.8650 ha         1 ICV       0.138000
     39 H9         -34.4530    -5.1490   -15.5260 ha         1 ICV       0.147000
     40 H10        -35.9160    -2.9150   -12.1420 ha         1 ICV       0.147000
     41 H11        -37.8160    -2.1360   -13.4910 ha         1 ICV       0.138000
     42 H12        -41.6550    -2.5270   -16.0920 hc         1 ICV       0.057200
     43 H13        -42.1000    -1.9530   -17.7050 hc         1 ICV       0.057200
     44 H14        -41.8500    -3.6740   -17.4240 hc         1 ICV       0.057200
     45 H15        -40.3890     2.6540   -19.3080 ha         1 ICV       0.205000
     46 H16        -41.7140     4.9500   -18.8910 h4         1 ICV       0.217000
     47 H17        -42.7680     4.8540   -16.6260 hn         1 ICV       0.363000
     48 C20        -39.9050     0.0310   -17.7000 c3         1 ICV       0.167300
     49 S26        -33.6730    -4.5930   -12.8230 sy         1 ICV       1.013500
@<TRIPOS>BOND
     1     1     2 ar  
     2     1    26 ar  
     3     1    28 1   
     4     2    27 ar  
     5     2    30 1   
     6     3     4 ar  
     7     3    26 ar  
     8     3    31 1   
     9     4    27 ar  
    10     4    32 1   
    11     5     6 1   
    12     5     9 1   
    13     5    24 1   
    14     5    25 1   
    15     6    21 1   
    16     6    23 2   
    17     7    21 1   
    18     7    22 2   
    19     7    25 1   
    20     8    10 ar  
    21     8    20 ar  
    22     8    21 1   
    23     9    33 1   
    24     9    34 1   
    25     9    35 1   
    26    10    11 ar  
    27    10    38 1   
    28    11    19 ar  
    29    11    39 1   
    30    12    19 ar  
    31    12    20 ar  
    32    12    40 1   
    33    13    14 1   
    34    13    15 1   
    35    13    16 1   
    36    13    49 1   
    37    17    49 2   
    38    18    49 2   
    39    19    49 1   
    40    20    41 1   
    41    24    42 1   
    42    24    43 1   
    43    24    44 1   
    44    25    48 1   
    45    26    48 1   
    46    28    29 2   
    47    28    45 1   
    48    29    30 1   
    49    29    46 1   
    50    30    47 1   
    51    36    48 1   
    52    37    48 1   
@<TRIPOS>SUBSTRUCTURE
     1 ICV         1 TEMP              0 ****  ****    0 ROOT
