@<TRIPOS>MOLECULE
ICV
   49    52     1     0     0
SMALL
No Charge or Current Charge


@<TRIPOS>ATOM
      1 C1         -41.6400     1.8270   -17.2540 ca         1 ICV      -0.136800
      2 C2         -42.6650     2.3510   -16.4950 ca         1 ICV       0.369500
      3 C7         -40.3180     1.6200   -15.2850 ca         1 ICV      -0.179000
      4 C8         -41.4080     2.1640   -14.5740 ca         1 ICV       0.359900
      5 C10        -39.6690    -1.7760   -17.6330 c5         1 ICV       0.047400
      6 C11        -38.9150    -2.9400   -16.9070 c          1 ICV       0.568000
      7 C13        -37.9540    -0.9160   -16.2650 c          1 ICV       0.618000
      8 C15        -36.9990    -3.0070   -15.3040 ca         1 ICV       0.041000
      9 C16        -39.5270    -1.9310   -19.1680 c3         1 ICV      -0.096100
     10 C21        -36.3180    -4.1400   -15.7920 ca         1 ICV      -0.118000
     11 C22        -35.4060    -4.8340   -14.9780 ca         1 ICV       0.007000
     12 C24        -35.8430    -3.2650   -13.1650 ca         1 ICV       0.007000
     13 C27        -32.3830    -4.4370   -12.9540 c3         1 ICV       0.145000
     14 F28        -32.4420    -3.1210   -12.6370 f          1 ICV      -0.098667
     15 F29        -31.3730    -4.9850   -12.2360 f          1 ICV      -0.098667
     16 F30        -32.0490    -4.5260   -14.2640 f          1 ICV      -0.098667
     17 O31        -34.3340    -5.0160   -11.2060 o          1 ICV      -0.469500
     18 O32        -33.8740    -6.6610   -13.1100 o          1 ICV      -0.469500
     19 C23        -35.1670    -4.3990   -13.6590 ca         1 ICV      -0.286500
     20 C25        -36.7530    -2.5770   -13.9850 ca         1 ICV      -0.118000
     21 N12        -37.9330    -2.3000   -16.1420 n          1 ICV      -0.233000
     22 O19        -37.1960    -0.1290   -15.7180 o          1 ICV      -0.519000
     23 O18        -39.1280    -4.1460   -16.9510 o          1 ICV      -0.481000
     24 C17        -41.1690    -1.7940   -17.2440 c3         1 ICV      -0.096100
     25 N14        -38.9780    -0.5670   -17.1380 n          1 ICV      -0.419800
     26 C6         -40.4200     1.4360   -16.6780 ca         1 ICV      -0.018300
     27 N9         -42.5740     2.5290   -15.1640 nb         1 ICV      -0.674000
     28 C5         -42.0790     1.7750   -18.6190 cc         1 ICV      -0.244200
     29 C4         -43.3700     2.2750   -18.6440 cd         1 ICV      -0.146100
     30 N3         -43.7350     2.6350   -17.3230 na         1 ICV      -0.324400
     31 H1         -39.4120     1.3480   -14.7520 ha         1 ICV       0.121000
     32 H2         -41.3440     2.3120   -13.4970 h4         1 ICV       0.020100
     33 H3         -39.9570    -2.8790   -19.5140 hc         1 ICV       0.057200
     34 H4         -40.0400    -1.1220   -19.7030 hc         1 ICV       0.057200
     35 H5         -38.4730    -1.9140   -19.4720 hc         1 ICV       0.057200
     36 H6         -38.3770     1.4530   -17.3300 h1         1 ICV       0.070700
     37 H7         -39.5040     0.8960   -18.5570 h1         1 ICV       0.070700
     38 H8         -36.4830    -4.4840   -16.8100 ha         1 ICV       0.138000
     39 H9         -34.8890    -5.7040   -15.3820 ha         1 ICV       0.147000
     40 H10        -35.6700    -2.9110   -12.1490 ha         1 ICV       0.147000
     41 H11        -37.2740    -1.7110   -13.5840 ha         1 ICV       0.138000
     42 H12        -41.2990    -1.6480   -16.1640 hc         1 ICV       0.057200
     43 H13        -41.7270    -1.0010   -17.7550 hc         1 ICV       0.057200
     44 H14        -41.6390    -2.7490   -17.5090 hc         1 ICV       0.057200
     45 H15        -41.5290     1.4150   -19.4870 ha         1 ICV       0.205000
     46 H16        -44.0470     2.4000   -19.4890 h4         1 ICV       0.217000
     47 H17        -44.6160     3.0300   -17.0190 hn         1 ICV       0.363000
     48 C20        -39.2740     0.8400   -17.4870 c3         1 ICV       0.167300
     49 S26        -33.9830    -5.2810   -12.6110 sy         1 ICV       1.013500
@<TRIPOS>BOND
     1     1     2 ar  
     2     1    26 ar  
     3     1    28 1   
     4     2    27 ar  
     5     2    30 1   
     6     3     4 ar  
     7     3    26 ar  
     8     3    31 1   
     9     4    27 ar  
    10     4    32 1   
    11     5     6 1   
    12     5     9 1   
    13     5    24 1   
    14     5    25 1   
    15     6    21 1   
    16     6    23 2   
    17     7    21 1   
    18     7    22 2   
    19     7    25 1   
    20     8    10 ar  
    21     8    20 ar  
    22     8    21 1   
    23     9    33 1   
    24     9    34 1   
    25     9    35 1   
    26    10    11 ar  
    27    10    38 1   
    28    11    19 ar  
    29    11    39 1   
    30    12    19 ar  
    31    12    20 ar  
    32    12    40 1   
    33    13    14 1   
    34    13    15 1   
    35    13    16 1   
    36    13    49 1   
    37    17    49 2   
    38    18    49 2   
    39    19    49 1   
    40    20    41 1   
    41    24    42 1   
    42    24    43 1   
    43    24    44 1   
    44    25    48 1   
    45    26    48 1   
    46    28    29 2   
    47    28    45 1   
    48    29    30 1   
    49    29    46 1   
    50    30    47 1   
    51    36    48 1   
    52    37    48 1   
@<TRIPOS>SUBSTRUCTURE
     1 ICV         1 TEMP              0 ****  ****    0 ROOT
