@<TRIPOS>MOLECULE
ICW
   49    53     1     0     0
SMALL
bcc


@<TRIPOS>ATOM
      1 C11         93.7710    -9.7090    11.6100 c3         1 ICW      -0.082700
      2 C13         94.4460   -11.8880    10.5740 cc         1 ICW       0.403800
      3 C15         95.7190   -12.5010     8.9000 cc         1 ICW      -0.245600
      4 C16         94.4470   -12.9820     8.7290 cd         1 ICW       0.361800
      5 C19         93.9170   -13.7980     7.6370 ca         1 ICW      -0.099500
      6 C20         92.6140   -14.2990     7.6950 ca         1 ICW      -0.114000
      7 C21         92.1060   -15.0780     6.6660 ca         1 ICW      -0.134000
      8 C22         92.8860   -15.3750     5.5570 ca         1 ICW      -0.130000
      9 C23         94.1820   -14.8790     5.4870 ca         1 ICW      -0.134000
     10 C24         94.6920   -14.1000     6.5130 ca         1 ICW      -0.114000
     11 C25         90.4970    -7.3770    17.5130 cx         1 ICW      -0.225000
     12 C26         89.0460    -7.7170    17.2770 cx         1 ICW      -0.096900
     13 C27         89.8790    -8.6170    18.1120 cx         1 ICW      -0.096900
     14 C1          93.4690    -6.7060    15.3300 cc         1 ICW       0.063400
     15 N2          91.2800    -8.4620    15.5230 nc         1 ICW      -0.654000
     16 C3          91.4640    -7.5070    16.4100 cd         1 ICW       0.518600
     17 C4          92.5560    -6.6060    16.3410 cd         1 ICW      -0.310300
     18 C5          94.6580    -5.8420    15.1400 c3         1 ICW      -0.055800
     19 N6          93.2400    -7.6990    14.4390 na         1 ICW       0.029200
     20 C7          92.1690    -8.5530    14.5400 cc         1 ICW       0.423500
     21 N8          92.2150    -9.4050    13.5290 nd         1 ICW      -0.381300
     22 C9          93.3160    -9.0290    12.8520 cd         1 ICW       0.542300
     23 N10         93.9750    -8.0050    13.3600 nc         1 ICW      -0.607100
     24 C12         94.0060   -11.2100    11.8240 c3         1 ICW      -0.100700
     25 N14         95.7050   -11.8110    10.0760 na         1 ICW      -0.182900
     26 N17         93.6710   -12.5890     9.7850 nd         1 ICW      -0.664000
     27 H1          93.0140    -9.5750    10.8330 hc         1 ICW       0.068700
     28 H2          94.6800    -9.2200    11.2600 hc         1 ICW       0.068700
     29 H3          96.6180   -12.5950     8.3130 h4         1 ICW       0.174000
     30 H4          97.7540   -11.5530    10.2920 h1         1 ICW       0.053367
     31 H5          96.8200   -10.0510    10.3530 h1         1 ICW       0.053367
     32 H6          96.8100   -11.1660    11.7290 h1         1 ICW       0.053367
     33 H7          91.9950   -14.0770     8.5540 ha         1 ICW       0.136500
     34 H8          91.0940   -15.4570     6.7340 ha         1 ICW       0.127000
     35 H9          92.4890   -15.9830     4.7540 ha         1 ICW       0.127000
     36 H10         94.8020   -15.0990     4.6260 ha         1 ICW       0.127000
     37 H11         95.7030   -13.7210     6.4310 ha         1 ICW       0.136500
     38 H12         90.6980    -6.5620    18.1980 hc         1 ICW       0.087700
     39 H13         88.3140    -7.0860    17.7620 hc         1 ICW       0.083200
     40 H14         88.7790    -8.0480    16.2820 hc         1 ICW       0.083200
     41 H15         90.1830    -9.5670    17.6910 hc         1 ICW       0.083200
     42 H16         89.7330    -8.6180    19.1840 hc         1 ICW       0.083200
     43 H17         92.6770    -5.8350    17.0880 ha         1 ICW       0.160000
     44 H18         95.5720    -6.4370    15.1490 hc         1 ICW       0.068033
     45 H19         94.6150    -5.3300    14.1780 hc         1 ICW       0.068033
     46 H20         94.7150    -5.0990    15.9300 hc         1 ICW       0.068033
     47 H21         94.7360   -11.3600    12.6240 hc         1 ICW       0.073700
     48 H22         93.0790   -11.6830    12.1490 hc         1 ICW       0.073700
     49 C18         96.8300   -11.1000    10.6440 c3         1 ICW       0.027600
@<TRIPOS>BOND
     1     1    22 1   
     2     1    24 1   
     3     1    27 1   
     4     1    28 1   
     5     2    24 1   
     6     2    25 1   
     7     2    26 2   
     8     3     4 2   
     9     3    25 1   
    10     3    29 1   
    11     4     5 1   
    12     4    26 1   
    13     5     6 ar  
    14     5    10 ar  
    15     6     7 ar  
    16     6    33 1   
    17     7     8 ar  
    18     7    34 1   
    19     8     9 ar  
    20     8    35 1   
    21     9    10 ar  
    22     9    36 1   
    23    10    37 1   
    24    11    12 1   
    25    11    13 1   
    26    11    16 1   
    27    11    38 1   
    28    12    13 1   
    29    12    39 1   
    30    12    40 1   
    31    13    41 1   
    32    13    42 1   
    33    14    17 2   
    34    14    18 1   
    35    14    19 1   
    36    15    16 2   
    37    15    20 1   
    38    16    17 1   
    39    17    43 1   
    40    18    44 1   
    41    18    45 1   
    42    18    46 1   
    43    19    20 1   
    44    19    23 1   
    45    20    21 2   
    46    21    22 1   
    47    22    23 2   
    48    24    47 1   
    49    24    48 1   
    50    25    49 1   
    51    30    49 1   
    52    31    49 1   
    53    32    49 1   
@<TRIPOS>SUBSTRUCTURE
     1 ICW         1 TEMP              0 ****  ****    0 ROOT
