@<TRIPOS>MOLECULE
ICW
   49    53     1     0     0
SMALL
No Charge or Current Charge


@<TRIPOS>ATOM
      1 C11         93.4840    -9.6970    11.5300 c3         1 ICW      -0.082700
      2 C13         94.5820   -11.7130    10.4240 cc         1 ICW       0.403800
      3 C15         95.7130   -12.2610     8.5910 cc         1 ICW      -0.213000
      4 C16         94.5150   -12.9310     8.6460 cd         1 ICW       0.296500
      5 C19         93.9940   -13.8970     7.6520 ca         1 ICW      -0.099500
      6 C20         92.7360   -14.5160     7.8350 ca         1 ICW      -0.096000
      7 C21         92.2430   -15.4330     6.8900 ca         1 ICW      -0.116000
      8 C22         93.0000   -15.7440     5.7490 ca         1 ICW      -0.112000
      9 C23         94.2500   -15.1370     5.5550 ca         1 ICW      -0.116000
     10 C24         94.7440   -14.2200     6.4990 ca         1 ICW      -0.096000
     11 C25         90.3810    -7.2660    17.5580 cx         1 ICW      -0.225000
     12 C26         88.8950    -7.1240    17.2930 cx         1 ICW      -0.096900
     13 C27         89.4140    -8.3290    18.0440 cx         1 ICW      -0.096900
     14 C1          93.6530    -7.0920    15.5770 cc         1 ICW       0.012700
     15 N2          90.9900    -8.3130    15.4570 nc         1 ICW      -0.654000
     16 C3          91.3650    -7.5270    16.4610 cd         1 ICW       0.453300
     17 C4          92.6700    -6.9110    16.5460 cd         1 ICW      -0.227000
     18 C5          95.0310    -6.4800    15.6070 c3         1 ICW      -0.055800
     19 N6          93.2280    -7.9220    14.5360 na         1 ICW       0.079900
     20 C7          91.9720    -8.4720    14.5230 cc         1 ICW       0.423500
     21 N8          91.8840    -9.1920    13.4300 nd         1 ICW      -0.381300
     22 C9          93.1250    -9.0310    12.8310 cd         1 ICW       0.542300
     23 N10         93.9940    -8.2550    13.4740 nc         1 ICW      -0.607100
     24 C12         94.2050   -11.0540    11.7240 c3         1 ICW      -0.100700
     25 N14         95.7540   -11.4810     9.7270 na         1 ICW      -0.161500
     26 N17         93.8180   -12.5830     9.7860 nd         1 ICW      -0.664000
     27 H1          92.5760    -9.8550    10.9370 hc         1 ICW       0.068700
     28 H2          94.1220    -9.0270    10.9410 hc         1 ICW       0.068700
     29 H3          96.5080   -12.2800     7.8580 h4         1 ICW       0.156000
     30 H4          97.6180   -10.5640     9.3330 h1         1 ICW       0.053367
     31 H5          96.4570    -9.5590    10.2470 h1         1 ICW       0.053367
     32 H6          97.2950   -10.9190    11.0550 h1         1 ICW       0.053367
     33 H7          92.1330   -14.2900     8.7110 ha         1 ICW       0.118500
     34 H8          91.2740   -15.9020     7.0430 ha         1 ICW       0.109000
     35 H9          92.6180   -16.4530     5.0180 ha         1 ICW       0.109000
     36 H10         94.8380   -15.3760     4.6710 ha         1 ICW       0.109000
     37 H11         95.7150   -13.7640     6.3240 ha         1 ICW       0.118500
     38 H12         90.7850    -6.6130    18.3280 hc         1 ICW       0.087700
     39 H13         88.3480    -6.3720    17.8570 hc         1 ICW       0.083200
     40 H14         88.5310    -7.2790    16.2790 hc         1 ICW       0.083200
     41 H15         89.3970    -9.2890    17.5320 hc         1 ICW       0.083200
     42 H16         89.2150    -8.3850    19.1110 hc         1 ICW       0.083200
     43 H17         92.8930    -6.2840    17.4000 ha         1 ICW       0.142000
     44 H18         95.8030    -7.2590    15.6090 hc         1 ICW       0.068033
     45 H19         95.1950    -5.8440    14.7290 hc         1 ICW       0.068033
     46 H20         95.1750    -5.8630    16.5010 hc         1 ICW       0.068033
     47 H21         95.1010   -10.9060    12.3380 hc         1 ICW       0.073700
     48 H22         93.5540   -11.7270    12.2950 hc         1 ICW       0.073700
     49 C18         96.8470   -10.5750    10.1140 c3         1 ICW       0.056900
@<TRIPOS>BOND
     1     1    22 1   
     2     1    24 1   
     3     1    27 1   
     4     1    28 1   
     5     2    24 1   
     6     2    25 1   
     7     2    26 2   
     8     3     4 2   
     9     3    25 1   
    10     3    29 1   
    11     4     5 1   
    12     4    26 1   
    13     5     6 ar  
    14     5    10 ar  
    15     6     7 ar  
    16     6    33 1   
    17     7     8 ar  
    18     7    34 1   
    19     8     9 ar  
    20     8    35 1   
    21     9    10 ar  
    22     9    36 1   
    23    10    37 1   
    24    11    12 1   
    25    11    13 1   
    26    11    16 1   
    27    11    38 1   
    28    12    13 1   
    29    12    39 1   
    30    12    40 1   
    31    13    41 1   
    32    13    42 1   
    33    14    17 2   
    34    14    18 1   
    35    14    19 1   
    36    15    16 2   
    37    15    20 1   
    38    16    17 1   
    39    17    43 1   
    40    18    44 1   
    41    18    45 1   
    42    18    46 1   
    43    19    20 1   
    44    19    23 1   
    45    20    21 2   
    46    21    22 1   
    47    22    23 2   
    48    24    47 1   
    49    24    48 1   
    50    25    49 1   
    51    30    49 1   
    52    31    49 1   
    53    32    49 1   
@<TRIPOS>SUBSTRUCTURE
     1 ICW         1 TEMP              0 ****  ****    0 ROOT
