@<TRIPOS>MOLECULE
ICX
   55    56     1     0     0
SMALL
No Charge or Current Charge


@<TRIPOS>ATOM
      1 C5           6.2440     0.7490     1.0910 ca         1 ICX      -0.077500
      2 C4           5.1890     1.2980     1.8420 ca         1 ICX      -0.106500
      3 C3           4.0590     0.5170     2.1540 ca         1 ICX      -0.063300
      4 C7           2.9120     1.1140     2.9600 c3         1 ICX       0.009200
      5 C8           1.8860     1.7810     2.0540 ca         1 ICX      -0.052300
      6 C9           2.0020     3.1440     1.7310 ca         1 ICX      -0.114500
      7 C10          1.0600     3.7590     0.8890 ca         1 ICX      -0.066500
      8 C11         -0.0190     3.0230     0.3490 ca         1 ICX      -0.153600
      9 C12         -0.1280     1.6490     0.6790 ca         1 ICX      -0.066500
     10 C13          0.8180     1.0390     1.5220 ca         1 ICX      -0.114500
     11 C23         -1.0160     3.7210    -0.5570 c          1 ICX       0.618700
     12 O24         -0.9240     4.9110    -0.8330 o          1 ICX      -0.582100
     13 N25         -2.0440     2.9480    -1.0600 ns         1 ICX      -0.418100
     14 C26         -3.0870     3.3610    -1.9080 c2         1 ICX      -0.058400
     15 C27         -4.0480     2.5360    -2.3530 c2         1 ICX      -0.303200
     16 C28         -4.1820     1.0520    -2.0600 c3         1 ICX      -0.027200
     17 C29         -5.2470     0.7730    -0.9810 c3         1 ICX      -0.065400
     18 C30         -5.4040    -0.7330    -0.6570 c3         1 ICX      -0.155400
     19 C31         -6.4730    -0.9690     0.4150 c          1 ICX       0.601100
     20 O32         -6.2890    -0.7220     1.5980 o          1 ICX      -0.603100
     21 N33         -7.6500    -1.5140    -0.0400 ns         1 ICX      -0.509900
     22 C34         -8.8110    -1.8370     0.8220 c3         1 ICX       0.042000
     23 C35         -9.9930    -2.4240     0.0200 c          1 ICX       0.581100
     24 O36         -9.9800    -2.6060    -1.1930 o          1 ICX      -0.494000
     25 O37        -11.0580    -2.7160     0.8330 os         1 ICX      -0.436100
     26 C38        -12.2400    -3.2720     0.2280 c3         1 ICX       0.151900
     27 C2           3.9920    -0.8170     1.7050 ca         1 ICX      -0.106500
     28 C1           5.0480    -1.3650     0.9530 ca         1 ICX      -0.077500
     29 C6           6.1720    -0.5810     0.6480 ca         1 ICX       0.198000
     30 I1           7.7960    -1.4240    -0.5110 i          1 ICX      -0.314000
     31 H5           7.1150     1.3530     0.8510 ha         1 ICX       0.127500
     32 H4           5.2500     2.3310     2.1800 ha         1 ICX       0.114500
     33 H7           2.4300     0.3340     3.5620 hc         1 ICX       0.059200
     34 H7A          3.3010     1.8380     3.6850 hc         1 ICX       0.059200
     35 H9           2.8260     3.7310     2.1310 ha         1 ICX       0.116500
     36 H10          1.1760     4.8160     0.6560 ha         1 ICX       0.124000
     37 H12         -0.9360     1.0340     0.2920 ha         1 ICX       0.124000
     38 H13          0.7190    -0.0170     1.7600 ha         1 ICX       0.116500
     39 HN25        -2.0350     1.9790    -0.7770 hn         1 ICX       0.318500
     40 H26         -3.0580     4.4230    -2.1730 h4         1 ICX       0.214000
     41 H27         -4.8300     2.9290    -3.0070 ha         1 ICX       0.185000
     42 H28         -4.4500     0.5190    -2.9810 hc         1 ICX       0.033700
     43 H28A        -3.2250     0.6290    -1.7320 hc         1 ICX       0.033700
     44 H29         -4.9790     1.3150    -0.0650 hc         1 ICX       0.059200
     45 H29A        -6.2130     1.1730    -1.3170 hc         1 ICX       0.059200
     46 H30         -5.6750    -1.2600    -1.5800 hc         1 ICX       0.056700
     47 H30A        -4.4450    -1.1090    -0.2830 hc         1 ICX       0.056700
     48 HN33        -7.7190    -1.6960    -1.0360 hn         1 ICX       0.337500
     49 H34         -8.5190    -2.5710     1.5830 h1         1 ICX       0.083200
     50 H34A        -9.1630    -0.9300     1.3300 h1         1 ICX       0.083200
     51 H38        -12.0160    -4.2270    -0.2650 h1         1 ICX       0.052033
     52 H38A       -13.0090    -3.4560     0.9890 h1         1 ICX       0.052033
     53 H38B       -12.6590    -2.5860    -0.5190 h1         1 ICX       0.052033
     54 H2           3.1230    -1.4290     1.9340 ha         1 ICX       0.114500
     55 H1           4.9960    -2.3930     0.6060 ha         1 ICX       0.127500
@<TRIPOS>BOND
     1     1     2 ar  
     2     1    29 ar  
     3     1    31 1   
     4     2     3 ar  
     5     2    32 1   
     6     3     4 1   
     7     3    27 ar  
     8     4     5 1   
     9     4    33 1   
    10     4    34 1   
    11     5     6 ar  
    12     5    10 ar  
    13     6     7 ar  
    14     6    35 1   
    15     7     8 ar  
    16     7    36 1   
    17     8     9 ar  
    18     8    11 1   
    19     9    10 ar  
    20     9    37 1   
    21    10    38 1   
    22    11    12 2   
    23    11    13 1   
    24    13    14 1   
    25    13    39 1   
    26    14    15 2   
    27    14    40 1   
    28    15    16 1   
    29    15    41 1   
    30    16    17 1   
    31    16    42 1   
    32    16    43 1   
    33    17    18 1   
    34    17    44 1   
    35    17    45 1   
    36    18    19 1   
    37    18    46 1   
    38    18    47 1   
    39    19    20 2   
    40    19    21 1   
    41    21    22 1   
    42    21    48 1   
    43    22    23 1   
    44    22    49 1   
    45    22    50 1   
    46    23    24 2   
    47    23    25 1   
    48    25    26 1   
    49    26    51 1   
    50    26    52 1   
    51    26    53 1   
    52    27    28 ar  
    53    27    54 1   
    54    28    29 ar  
    55    28    55 1   
    56    29    30 1   
@<TRIPOS>SUBSTRUCTURE
     1 ICX         1 TEMP              0 ****  ****    0 ROOT
