@<TRIPOS>MOLECULE
ICX
   55    56     1     0     0
SMALL
bcc


@<TRIPOS>ATOM
      1 C5           6.6680     1.1630     1.4770 ca         1 ICX      -0.095500
      2 C4           5.4960     1.2960     2.2110 ca         1 ICX      -0.124500
      3 C3           4.4540     0.3850     2.0770 ca         1 ICX      -0.063300
      4 C7           3.1640     0.5630     2.8380 c3         1 ICX       0.009200
      5 C8           2.1360     1.2610     1.9860 ca         1 ICX      -0.052300
      6 C9           2.1180     2.6510     1.8850 ca         1 ICX      -0.132500
      7 C10          1.2120     3.2910     1.0590 ca         1 ICX      -0.084500
      8 C11          0.2840     2.5580     0.3200 ca         1 ICX      -0.153600
      9 C12          0.3010     1.1680     0.4170 ca         1 ICX      -0.084500
     10 C13          1.2170     0.5310     1.2400 ca         1 ICX      -0.132500
     11 C23         -0.6560     3.3050    -0.5630 c          1 ICX       0.685700
     12 O24         -0.4110     4.4390    -0.9410 o          1 ICX      -0.582100
     13 N25         -1.7940     2.6510    -0.9070 ns         1 ICX      -0.485100
     14 C26         -2.7590     3.1750    -1.7620 c2         1 ICX      -0.008400
     15 C27         -3.8940     2.5640    -2.1010 c2         1 ICX      -0.253200
     16 C28         -4.3810     1.2260    -1.6430 c3         1 ICX      -0.027200
     17 C29         -5.7850     1.3010    -1.0440 c3         1 ICX      -0.065400
     18 C30         -6.2850    -0.0720    -0.6180 c3         1 ICX      -0.155400
     19 C31         -7.6490    -0.0340     0.0350 c          1 ICX       0.668100
     20 O32         -8.0150     0.8910     0.7470 o          1 ICX      -0.603100
     21 N33         -8.4230    -1.1070    -0.1960 ns         1 ICX      -0.576900
     22 C34         -9.7120    -1.2600     0.4200 c3         1 ICX       0.042000
     23 C35        -10.2790    -2.6240     0.1160 c          1 ICX       0.630100
     24 O36         -9.7310    -3.4600    -0.5560 o          1 ICX      -0.543000
     25 O37        -11.4590    -2.7760     0.6840 os         1 ICX      -0.412900
     26 C38        -12.1360    -4.0210     0.4880 c3         1 ICX       0.128700
     27 C2           4.6110    -0.6750     1.1890 ca         1 ICX      -0.124500
     28 C1           5.7730    -0.8270     0.4470 ca         1 ICX      -0.095500
     29 C6           6.7950     0.1000     0.5970 ca         1 ICX       0.060900
     30 I1           8.5640    -0.1170    -0.5240 i          1 ICX      -0.176900
     31 H5           7.4630     1.8850     1.6050 ha         1 ICX       0.145500
     32 H4           5.4040     2.1260     2.9020 ha         1 ICX       0.132500
     33 H7           2.7830    -0.4100     3.1500 hc         1 ICX       0.059200
     34 H7A          3.3490     1.1400     3.7460 hc         1 ICX       0.059200
     35 H9           2.8230     3.2420     2.4580 ha         1 ICX       0.134500
     36 H10          1.2190     4.3710     0.9930 ha         1 ICX       0.142000
     37 H12         -0.3770     0.5530    -0.1620 ha         1 ICX       0.142000
     38 H13          1.2140    -0.5500     1.2960 ha         1 ICX       0.134500
     39 HN25        -1.9790     1.7530    -0.4900 hn         1 ICX       0.318500
     40 H26         -2.5180     4.1510    -2.1600 h4         1 ICX       0.164000
     41 H27         -4.5400     3.1020    -2.7850 ha         1 ICX       0.135000
     42 H28         -4.3930     0.5390    -2.4970 hc         1 ICX       0.033700
     43 H28A        -3.7070     0.7740    -0.9100 hc         1 ICX       0.033700
     44 H29         -5.7800     1.9770    -0.1880 hc         1 ICX       0.059200
     45 H29A        -6.4690     1.7320    -1.7810 hc         1 ICX       0.059200
     46 H30         -6.2870    -0.7560    -1.4700 hc         1 ICX       0.056700
     47 H30A        -5.5910    -0.5040     0.1130 hc         1 ICX       0.056700
     48 HN33        -8.0910    -1.8460    -0.7950 hn         1 ICX       0.337500
     49 H34         -9.6470    -1.1440     1.5060 h1         1 ICX       0.083200
     50 H34A       -10.4210    -0.5020     0.0700 h1         1 ICX       0.083200
     51 H38        -11.5630    -4.8510     0.8990 h1         1 ICX       0.052033
     52 H38A       -13.0780    -3.9330     1.0200 h1         1 ICX       0.052033
     53 H38B       -12.3310    -4.2030    -0.5680 h1         1 ICX       0.052033
     54 H2           3.8170    -1.4030     1.0690 ha         1 ICX       0.132500
     55 H1           5.8680    -1.6620    -0.2340 ha         1 ICX       0.145500
@<TRIPOS>BOND
     1     1     2 ar  
     2     1    29 ar  
     3     1    31 1   
     4     2     3 ar  
     5     2    32 1   
     6     3     4 1   
     7     3    27 ar  
     8     4     5 1   
     9     4    33 1   
    10     4    34 1   
    11     5     6 ar  
    12     5    10 ar  
    13     6     7 ar  
    14     6    35 1   
    15     7     8 ar  
    16     7    36 1   
    17     8     9 ar  
    18     8    11 1   
    19     9    10 ar  
    20     9    37 1   
    21    10    38 1   
    22    11    12 2   
    23    11    13 1   
    24    13    14 1   
    25    13    39 1   
    26    14    15 2   
    27    14    40 1   
    28    15    16 1   
    29    15    41 1   
    30    16    17 1   
    31    16    42 1   
    32    16    43 1   
    33    17    18 1   
    34    17    44 1   
    35    17    45 1   
    36    18    19 1   
    37    18    46 1   
    38    18    47 1   
    39    19    20 2   
    40    19    21 1   
    41    21    22 1   
    42    21    48 1   
    43    22    23 1   
    44    22    49 1   
    45    22    50 1   
    46    23    24 2   
    47    23    25 1   
    48    25    26 1   
    49    26    51 1   
    50    26    52 1   
    51    26    53 1   
    52    27    28 ar  
    53    27    54 1   
    54    28    29 ar  
    55    28    55 1   
    56    29    30 1   
@<TRIPOS>SUBSTRUCTURE
     1 ICX         1 TEMP              0 ****  ****    0 ROOT
