@<TRIPOS>MOLECULE
ICY
   26    26     1     0     0
SMALL
bcc


@<TRIPOS>ATOM
      1 C           17.2120    39.9230   -20.5290 c          1 ICY       0.934600
      2 N           16.0740    42.0210   -19.8580 n8         1 ICY      -0.891800
      3 O           17.4710    40.5310   -21.5850 o          1 ICY      -0.828300
      4 CA          16.6480    40.7820   -19.3590 c3         1 ICY       0.024500
      5 CB          15.6190    39.9930   -18.5600 c3         1 ICY       0.081700
      6 SG          15.0560    40.9690   -17.1310 ss         1 ICY      -0.401200
      7 I           11.2310    41.3140   -17.4440 i          1 ICY      -0.167900
      8 C0          13.9870    39.7390   -16.3180 c3         1 ICY       0.050000
      9 C1          13.1900    40.4220   -15.2500 ca         1 ICY      -0.015300
     10 C2          12.0240    41.1480   -15.4960 ca         1 ICY       0.073900
     11 C3          11.3340    41.7880   -14.4750 ca         1 ICY      -0.107000
     12 C4          11.8130    41.7180   -13.1740 ca         1 ICY      -0.144000
     13 C5          12.9730    41.0090   -12.9020 ca         1 ICY      -0.121000
     14 C6          13.6470    40.3740   -13.9330 ca         1 ICY      -0.126000
     15 OXT         17.3920    38.7140   -20.2950 o          1 ICY      -0.828300
     16 HN          16.1720    42.7610   -19.1750 hn         1 ICY       0.335300
     17 HNA         16.6120    42.2970   -20.6690 hn         1 ICY       0.335300
     18 HA          17.5080    40.9640   -18.6910 h1         1 ICY       0.010700
     19 HB          14.7540    39.7530   -19.1830 h1         1 ICY       0.065200
     20 HBA         16.0560    39.0650   -18.1960 h1         1 ICY       0.065200
     21 H0          13.3470    39.2740   -17.0700 h1         1 ICY       0.067700
     22 H0A         14.6050    38.9560   -15.8790 h1         1 ICY       0.067700
     23 H3          10.4290    42.3420   -14.6820 ha         1 ICY       0.135000
     24 H4          11.2740    42.2190   -12.3810 ha         1 ICY       0.123000
     25 H5          13.3530    40.9490   -11.8910 ha         1 ICY       0.125000
     26 H6          14.5530    39.8200   -13.7190 ha         1 ICY       0.135000
@<TRIPOS>BOND
     1     1     3 1   
     2     1     4 1   
     3     1    15 1   
     4     2     4 1   
     5     2    16 1   
     6     2    17 1   
     7     4     5 1   
     8     4    18 1   
     9     5     6 1   
    10     5    19 1   
    11     5    20 1   
    12     6     8 1   
    13     7    10 1   
    14     8     9 1   
    15     8    21 1   
    16     8    22 1   
    17     9    10 ar  
    18     9    14 ar  
    19    10    11 ar  
    20    11    12 ar  
    21    11    23 1   
    22    12    13 ar  
    23    12    24 1   
    24    13    14 ar  
    25    13    25 1   
    26    14    26 1   
@<TRIPOS>SUBSTRUCTURE
     1 ICY         1 TEMP              0 ****  ****    0 ROOT
