@<TRIPOS>MOLECULE
ICY
   26    26     1     0     0
SMALL
No Charge or Current Charge


@<TRIPOS>ATOM
      1 C           17.4280    39.7820   -20.5020 c          1 ICY       0.724000
      2 N           15.9730    41.9550   -20.1580 n8         1 ICY      -1.002200
      3 O           18.5460    40.1100   -20.8810 o          1 ICY      -0.723000
      4 CA          16.6610    40.7640   -19.5220 c3         1 ICY       0.024500
      5 CB          15.6890    39.9800   -18.5970 c3         1 ICY       0.129600
      6 SG          14.9890    41.0700   -17.2590 ss         1 ICY      -0.497000
      7 I           11.0130    41.3480   -17.3880 i          1 ICY      -0.305000
      8 C0          13.9090    39.8420   -16.3870 c3         1 ICY       0.097900
      9 C1          13.1640    40.4950   -15.2290 ca         1 ICY      -0.015300
     10 C2          11.9380    41.1750   -15.4220 ca         1 ICY       0.211000
     11 C3          11.2790    41.7650   -14.3300 ca         1 ICY      -0.089000
     12 C4          11.8310    41.6860   -13.0400 ca         1 ICY      -0.126000
     13 C5          13.0480    41.0150   -12.8420 ca         1 ICY      -0.103000
     14 C6          13.7110    40.4230   -13.9310 ca         1 ICY      -0.108000
     15 OXT         16.8950    38.7300   -20.8350 o          1 ICY      -0.723000
     16 HN          15.5220    42.4940   -19.4090 hn         1 ICY       0.390500
     17 HNA         16.6850    42.5930   -20.5330 hn         1 ICY       0.390500
     18 HA          17.4310    41.1870   -18.8630 h1         1 ICY       0.010700
     19 HB          14.8650    39.5630   -19.1910 h1         1 ICY       0.065200
     20 HBA         16.2280    39.1470   -18.1260 h1         1 ICY       0.065200
     21 H0          13.2010    39.4000   -17.0990 h1         1 ICY       0.067700
     22 H0A         14.5380    39.0270   -16.0050 h1         1 ICY       0.067700
     23 H3          10.3380    42.2850   -14.4860 ha         1 ICY       0.117000
     24 H4          11.3170    42.1440   -12.1980 ha         1 ICY       0.105000
     25 H5          13.4790    40.9540   -11.8450 ha         1 ICY       0.107000
     26 H6          14.6550    39.9090   -13.7660 ha         1 ICY       0.117000
@<TRIPOS>BOND
     1     1     3 1   
     2     1     4 1   
     3     1    15 1   
     4     2     4 1   
     5     2    16 1   
     6     2    17 1   
     7     4     5 1   
     8     4    18 1   
     9     5     6 1   
    10     5    19 1   
    11     5    20 1   
    12     6     8 1   
    13     7    10 1   
    14     8     9 1   
    15     8    21 1   
    16     8    22 1   
    17     9    10 ar  
    18     9    14 ar  
    19    10    11 ar  
    20    11    12 ar  
    21    11    23 1   
    22    12    13 ar  
    23    12    24 1   
    24    13    14 ar  
    25    13    25 1   
    26    14    26 1   
@<TRIPOS>SUBSTRUCTURE
     1 ICY         1 TEMP              0 ****  ****    0 ROOT
