@<TRIPOS>MOLECULE
ID0
   26    27     1     0     0
SMALL
No Charge or Current Charge


@<TRIPOS>ATOM
      1 C10        -25.1830    30.0890   -25.6660 c6         1 ID0      -0.078400
      2 C01        -22.0210    23.6490   -25.6110 c3         1 ID0       0.099300
      3 C03        -22.8250    26.0380   -25.7130 c          1 ID0       0.529600
      4 C04        -22.3160    27.4600   -25.6800 cc         1 ID0       0.202500
      5 C07        -22.3520    29.6930   -25.7340 cd         1 ID0      -0.163300
      6 C08        -23.1550    28.6000   -25.7690 cc         1 ID0      -0.130300
      7 C09        -24.6620    28.6430   -25.9090 c6         1 ID0       0.005900
      8 C11        -24.2920    31.1590   -26.3570 c6         1 ID0      -0.070400
      9 C12        -22.8360    31.1230   -25.8190 c6         1 ID0      -0.007100
     10 N02        -21.8180    25.0980   -25.6060 ns         1 ID0      -0.498900
     11 N05        -21.0300    27.7970   -25.5740 nd         1 ID0      -0.525800
     12 N06        -21.0540    29.1940   -25.6060 na         1 ID0       0.017800
     13 O13        -23.9970    25.6940   -25.8260 o          1 ID0      -0.606100
     14 H1         -25.2110    30.2880   -24.5850 hc         1 ID0       0.043700
     15 H2         -26.2190    30.1740   -26.0210 hc         1 ID0       0.043700
     16 H3         -21.0530    23.1420   -25.5110 h1         1 ID0       0.038367
     17 H4         -22.6680    23.3640   -24.7710 h1         1 ID0       0.038367
     18 H5         -22.4930    23.3450   -26.5540 h1         1 ID0       0.038367
     19 H6         -25.1530    27.9630   -25.2000 hc         1 ID0       0.063200
     20 H7         -24.9550    28.3130   -26.9150 hc         1 ID0       0.063200
     21 H8         -24.7190    32.1600   -26.2080 hc         1 ID0       0.045200
     22 H9         -24.2870    30.9810   -27.4410 hc         1 ID0       0.045200
     23 H10        -22.1820    31.7230   -26.4670 hc         1 ID0       0.051200
     24 H11        -22.8010    31.5860   -24.8230 hc         1 ID0       0.051200
     25 H12        -20.8750    25.4660   -25.5180 hn         1 ID0       0.332500
     26 H13        -20.1980    29.7450   -25.5450 hn         1 ID0       0.371000
@<TRIPOS>BOND
     1     1     7 1   
     2     1     8 1   
     3     1    14 1   
     4     1    15 1   
     5     2    10 1   
     6     2    16 1   
     7     2    17 1   
     8     2    18 1   
     9     3     4 1   
    10     3    10 1   
    11     3    13 2   
    12     4     6 1   
    13     4    11 2   
    14     5     6 2   
    15     5     9 1   
    16     5    12 1   
    17     6     7 1   
    18     7    19 1   
    19     7    20 1   
    20     8     9 1   
    21     8    21 1   
    22     8    22 1   
    23     9    23 1   
    24     9    24 1   
    25    10    25 1   
    26    11    12 1   
    27    12    26 1   
@<TRIPOS>SUBSTRUCTURE
     1 ID0         1 TEMP              0 ****  ****    0 ROOT
