@<TRIPOS>MOLECULE
ID0
   26    27     1     0     0
SMALL
bcc


@<TRIPOS>ATOM
      1 C10        -25.1590    30.1370   -25.6490 c6         1 ID0      -0.078400
      2 C01        -21.9560    23.7070   -25.5880 c3         1 ID0       0.099300
      3 C03        -22.7780    26.0000   -25.7290 c          1 ID0       0.596600
      4 C04        -22.4070    27.4310   -25.7130 cc         1 ID0       0.267800
      5 C07        -22.4200    29.6270   -25.7500 cd         1 ID0      -0.112600
      6 C08        -23.2680    28.5440   -25.8070 cc         1 ID0      -0.195600
      7 C09        -24.7490    28.6910   -25.9420 c6         1 ID0       0.005900
      8 C11        -24.2460    31.1490   -26.3380 c6         1 ID0      -0.070400
      9 C12        -22.8120    31.0610   -25.8110 c6         1 ID0      -0.007100
     10 N02        -21.7630    25.1360   -25.5870 ns         1 ID0      -0.565900
     11 N05        -21.1410    27.8110   -25.6020 nd         1 ID0      -0.525800
     12 N06        -21.1740    29.1300   -25.6270 na         1 ID0       0.017400
     13 O13        -23.9440    25.6460   -25.8640 o          1 ID0      -0.606100
     14 H1         -25.1310    30.3090   -24.5690 hc         1 ID0       0.043700
     15 H2         -26.1920    30.2930   -25.9630 hc         1 ID0       0.043700
     16 H3         -20.9870    23.2290   -25.4770 h1         1 ID0       0.038367
     17 H4         -22.5920    23.3830   -24.7630 h1         1 ID0       0.038367
     18 H5         -22.4050    23.3600   -26.5190 h1         1 ID0       0.038367
     19 H6         -25.2710    28.0090   -25.2700 hc         1 ID0       0.063200
     20 H7         -25.0610    28.4140   -26.9540 hc         1 ID0       0.063200
     21 H8         -24.6250    32.1620   -26.1880 hc         1 ID0       0.045200
     22 H9         -24.2500    30.9700   -27.4170 hc         1 ID0       0.045200
     23 H10        -22.1280    31.6290   -26.4460 hc         1 ID0       0.051200
     24 H11        -22.7530    31.5060   -24.8130 hc         1 ID0       0.051200
     25 H12        -20.8310    25.5030   -25.4820 hn         1 ID0       0.332500
     26 H13        -20.3130    29.6520   -25.5600 hn         1 ID0       0.320700
@<TRIPOS>BOND
     1     1     7 1   
     2     1     8 1   
     3     1    14 1   
     4     1    15 1   
     5     2    10 1   
     6     2    16 1   
     7     2    17 1   
     8     2    18 1   
     9     3     4 1   
    10     3    10 1   
    11     3    13 2   
    12     4     6 1   
    13     4    11 2   
    14     5     6 2   
    15     5     9 1   
    16     5    12 1   
    17     6     7 1   
    18     7    19 1   
    19     7    20 1   
    20     8     9 1   
    21     8    21 1   
    22     8    22 1   
    23     9    23 1   
    24     9    24 1   
    25    10    25 1   
    26    11    12 1   
    27    12    26 1   
@<TRIPOS>SUBSTRUCTURE
     1 ID0         1 TEMP              0 ****  ****    0 ROOT
