@<TRIPOS>MOLECULE
ID1
   38    38     1     0     0
SMALL
abcg2


@<TRIPOS>ATOM
      1 C7          -1.4370     1.5750     0.6770 c          1 ID1       0.593900
      2 C2           0.0950    -1.0620    -1.0700 c5         1 ID1      -0.001000
      3 C6          -2.4100     1.3330    -0.4440 c3         1 ID1      -0.204700
      4 C5          -2.0310     0.0840    -1.2640 c5         1 ID1       0.107500
      5 C3          -1.0740    -1.7510    -0.4050 ce         1 ID1       0.357300
      6 O7          -0.7490     2.5610     0.7820 o          1 ID1      -0.552100
      7 C61         -3.8380     1.2300     0.1370 c3         1 ID1       0.179300
      8 O62         -4.7730     0.8920    -0.8630 oh         1 ID1      -0.637000
      9 C62         -4.2440     2.5040     0.8650 c3         1 ID1      -0.133100
     10 N4          -2.1780    -1.1350    -0.4840 n2         1 ID1      -0.563900
     11 C31         -0.9310    -3.0980     0.2960 c          1 ID1       0.640700
     12 O31          0.0770    -3.7480    -0.0310 o          1 ID1      -0.691500
     13 O32         -1.8260    -3.4130     1.0950 o          1 ID1      -0.691500
     14 S21          1.2200    -0.5380     0.2660 ss         1 ID1      -0.418000
     15 C22          2.4920     0.3390    -0.6830 c3         1 ID1       0.061600
     16 C23          3.6300     0.7310     0.2470 c3         1 ID1       0.120800
     17 N24          4.6390     1.4340    -0.5120 n2         1 ID1      -0.669900
     18 C25          5.6650     1.8510     0.1180 c2         1 ID1       0.619100
     19 N26          5.9660     1.7090     1.4270 nv         1 ID1      -1.105200
     20 C1          -0.5920     0.0760    -1.8240 c5         1 ID1      -0.116400
     21 H1          -1.4060     0.7840     1.4470 h4         1 ID1       0.018200
     22 H2           0.6450    -1.7380    -1.7260 h1         1 ID1       0.100700
     23 H3          -2.3610     2.1970    -1.1170 hc         1 ID1       0.044700
     24 H4          -2.7490     0.0430    -2.0840 h1         1 ID1       0.062700
     25 H6          -3.8590     0.3970     0.8440 h1         1 ID1       0.109700
     26 H7          -4.8500     1.6360    -1.4700 ho         1 ID1       0.419000
     27 H8          -4.1980     3.3710     0.2020 hc         1 ID1       0.035700
     28 H9          -5.2640     2.4170     1.2420 hc         1 ID1       0.035700
     29 H10         -3.6000     2.7080     1.7210 hc         1 ID1       0.035700
     30 H14          2.8640    -0.3110    -1.4770 h1         1 ID1       0.059700
     31 H15          2.0670     1.2330    -1.1420 h1         1 ID1       0.059700
     32 H16          3.2280     1.3470     1.0650 h1         1 ID1       0.041700
     33 H17          4.0350    -0.1740     0.7210 h1         1 ID1       0.041700
     34 H18          6.4350     2.3720    -0.4480 h5         1 ID1       0.011800
     35 H19          5.2770     1.3970     2.0920 hn         1 ID1       0.469000
     36 H20          6.7390     2.2250     1.8080 hn         1 ID1       0.469000
     37 H21         -0.0860     1.0360    -1.7240 hc         1 ID1       0.044200
     38 H22         -0.6130    -0.1550    -2.8900 hc         1 ID1       0.044200
@<TRIPOS>BOND
     1     1     3 1   
     2     1     6 2   
     3     1    21 1   
     4     2     5 1   
     5     2    14 1   
     6     2    20 1   
     7     2    22 1   
     8     3     4 1   
     9     3     7 1   
    10     3    23 1   
    11     4    10 1   
    12     4    20 1   
    13     4    24 1   
    14     5    10 2   
    15     5    11 1   
    16     7     8 1   
    17     7     9 1   
    18     7    25 1   
    19     8    26 1   
    20     9    27 1   
    21     9    28 1   
    22     9    29 1   
    23    11    12 1   
    24    11    13 1   
    25    14    15 1   
    26    15    16 1   
    27    15    30 1   
    28    15    31 1   
    29    16    17 1   
    30    16    32 1   
    31    16    33 1   
    32    17    18 2   
    33    18    19 1   
    34    18    34 1   
    35    19    35 1   
    36    19    36 1   
    37    20    37 1   
    38    20    38 1   
@<TRIPOS>SUBSTRUCTURE
     1 ID1         1 TEMP              0 ****  ****    0 ROOT
