@<TRIPOS>MOLECULE
ID1
   38    38     1     0     0
SMALL
No Charge or Current Charge


@<TRIPOS>ATOM
      1 C7          -1.6800     1.5380     0.8300 c          1 ID1       0.593900
      2 C2           0.1550    -1.0070    -0.8760 c5         1 ID1      -0.001000
      3 C6          -2.5470     1.2750    -0.4080 c3         1 ID1      -0.204700
      4 C5          -2.0670     0.0170    -1.1920 c5         1 ID1       0.107500
      5 C3          -1.0150    -1.7550    -0.2420 ce         1 ID1       0.357300
      6 O7          -1.0490     2.5780     0.9970 o          1 ID1      -0.552100
      7 C61         -4.0480     1.2190    -0.0110 c3         1 ID1       0.179300
      8 O62         -4.8450     1.1870    -1.2000 oh         1 ID1      -0.637000
      9 C62         -4.5190     2.4270     0.8290 c3         1 ID1      -0.133100
     10 N4          -2.1960    -1.2080    -0.3610 n2         1 ID1      -0.563900
     11 C31         -0.7300    -3.2030     0.2080 c          1 ID1       0.640700
     12 O31          0.4090    -3.6550     0.1260 o          1 ID1      -0.691500
     13 O32         -1.6570    -3.8880     0.6350 o          1 ID1      -0.691500
     14 S21          1.1260    -0.1330     0.4640 ss         1 ID1      -0.418000
     15 C22          2.5690     0.5190    -0.4980 c3         1 ID1       0.061600
     16 C23          3.5270     1.3110     0.4170 c3         1 ID1       0.120800
     17 N24          4.6620     1.8450    -0.3660 n2         1 ID1      -0.669900
     18 C25          5.8990     1.6830    -0.0800 c2         1 ID1       0.619100
     19 N26          6.3660     1.0310     1.0300 nv         1 ID1      -1.105200
     20 C1          -0.5990     0.0530    -1.7250 c5         1 ID1      -0.116400
     21 H1          -1.6640     0.7290     1.5940 h4         1 ID1       0.018200
     22 H2           0.8080    -1.6550    -1.4750 h1         1 ID1       0.100700
     23 H3          -2.4190     2.1470    -1.0630 hc         1 ID1       0.044700
     24 H4          -2.7350    -0.0870    -2.0590 h1         1 ID1       0.062700
     25 H6          -4.2240     0.3080     0.5840 h1         1 ID1       0.109700
     26 H7          -4.7090     2.0440    -1.6550 ho         1 ID1       0.419000
     27 H8          -4.2980     3.3730     0.3180 hc         1 ID1       0.035700
     28 H9          -5.6010     2.3760     1.0030 hc         1 ID1       0.035700
     29 H10         -4.0300     2.4430     1.8100 hc         1 ID1       0.035700
     30 H14          3.1050    -0.3230    -0.9530 h1         1 ID1       0.059700
     31 H15          2.2040     1.1730    -1.3000 h1         1 ID1       0.059700
     32 H16          2.9640     2.1370     0.8720 h1         1 ID1       0.041700
     33 H17          3.8480     0.6490     1.2320 h1         1 ID1       0.041700
     34 H18          6.6910     2.0870    -0.7150 h5         1 ID1       0.011800
     35 H19          5.7130     1.0440     1.8030 hn         1 ID1       0.469000
     36 H20          7.3220     1.2680     1.2800 hn         1 ID1       0.469000
     37 H21         -0.1510     1.0520    -1.6790 hc         1 ID1       0.044200
     38 H22         -0.5830    -0.2400    -2.7810 hc         1 ID1       0.044200
@<TRIPOS>BOND
     1     1     3 1   
     2     1     6 2   
     3     1    21 1   
     4     2     5 1   
     5     2    14 1   
     6     2    20 1   
     7     2    22 1   
     8     3     4 1   
     9     3     7 1   
    10     3    23 1   
    11     4    10 1   
    12     4    20 1   
    13     4    24 1   
    14     5    10 2   
    15     5    11 1   
    16     7     8 1   
    17     7     9 1   
    18     7    25 1   
    19     8    26 1   
    20     9    27 1   
    21     9    28 1   
    22     9    29 1   
    23    11    12 1   
    24    11    13 1   
    25    14    15 1   
    26    15    16 1   
    27    15    30 1   
    28    15    31 1   
    29    16    17 1   
    30    16    32 1   
    31    16    33 1   
    32    17    18 2   
    33    18    19 1   
    34    18    34 1   
    35    19    35 1   
    36    19    36 1   
    37    20    37 1   
    38    20    38 1   
@<TRIPOS>SUBSTRUCTURE
     1 ID1         1 TEMP              0 ****  ****    0 ROOT
