@<TRIPOS>MOLECULE
ID2
   28    29     1     0     0
SMALL
abcg2


@<TRIPOS>ATOM
      1 C2           1.4030    -0.0710     1.0290 c          1 ID2       0.627000
      2 C4           1.6550     0.3440    -1.4050 c          1 ID2       0.603200
      3 C5           0.2260     0.1370    -1.5140 cc         1 ID2      -0.183400
      4 C6          -0.4970    -0.1500    -0.4160 cd         1 ID2       0.051600
      5 O2           1.9300    -0.1500     2.1150 o          1 ID2      -0.552000
      6 O5          -0.8090     2.3540     5.0400 oh         1 ID2      -0.710000
      7 C9          -0.0440     1.1740     4.9850 c3         1 ID2       0.163600
      8 C8          -0.7780     0.1380     4.1710 c5         1 ID2       0.170300
      9 O4          -0.8470     0.5440     2.8140 os         1 ID2      -0.433000
     10 C1          -0.8260    -0.5630     1.9640 c5         1 ID2       0.349700
     11 N1           0.0500    -0.2710     0.8250 n          1 ID2      -0.317000
     12 N3           2.1140     0.2190    -0.1070 ns         1 ID2      -0.468500
     13 O1           2.4100     0.6030    -2.3170 o          1 ID2      -0.503000
     14 I           -0.6410     0.3020    -3.3950 i          1 ID2      -0.087800
     15 C7          -0.4460    -1.7890     2.8010 c5         1 ID2      -0.151400
     16 C3          -0.0850    -1.2240     4.1760 c5         1 ID2       0.138300
     17 O3          -0.5620    -1.9730     5.2650 oh         1 ID2      -0.709000
     18 H6          -1.5670    -0.3040    -0.4640 h4         1 ID2       0.216000
     19 HO5         -0.3390     2.9910     5.5860 ho         1 ID2       0.506000
     20 H5'1         0.9430     1.3430     4.5340 h1         1 ID2       0.036700
     21 H5'2         0.1240     0.7490     5.9830 h1         1 ID2       0.036700
     22 H4          -1.7950     0.0100     4.5710 h1         1 ID2       0.076700
     23 H1          -1.8080    -0.7160     1.5120 h2         1 ID2       0.064700
     24 HN3          3.1080     0.3560     0.0330 hn         1 ID2       0.343500
     25 H2'1        -1.3230    -2.4290     2.8960 hc         1 ID2       0.073700
     26 H2'2         0.3470    -2.3850     2.3520 hc         1 ID2       0.073700
     27 H3           0.9980    -1.0860     4.2500 h1         1 ID2       0.070700
     28 HO3          0.0320    -2.7170     5.4020 ho         1 ID2       0.512000
@<TRIPOS>BOND
     1     1     5 2   
     2     1    11 1   
     3     1    12 1   
     4     2     3 1   
     5     2    12 1   
     6     2    13 2   
     7     3     4 2   
     8     3    14 1   
     9     4    11 1   
    10     4    18 1   
    11     6     7 1   
    12     6    19 1   
    13     7     8 1   
    14     7    20 1   
    15     7    21 1   
    16     8     9 1   
    17     8    16 1   
    18     8    22 1   
    19     9    10 1   
    20    10    11 1   
    21    10    15 1   
    22    10    23 1   
    23    12    24 1   
    24    15    16 1   
    25    15    25 1   
    26    15    26 1   
    27    16    17 1   
    28    16    27 1   
    29    17    28 1   
@<TRIPOS>SUBSTRUCTURE
     1 ID2         1 TEMP              0 ****  ****    0 ROOT
