@<TRIPOS>MOLECULE
ID2
   28    29     1     0     0
SMALL
No Charge or Current Charge


@<TRIPOS>ATOM
      1 C2           1.4560     0.1910     0.9050 c          1 ID2       0.627000
      2 C4           1.7030     0.0910    -1.5300 c          1 ID2       0.603200
      3 C5           0.2780    -0.2760    -1.6110 cc         1 ID2      -0.183400
      4 C6          -0.4820    -0.3820    -0.4690 cd         1 ID2       0.051600
      5 O2           2.0370     0.3660     1.9630 o          1 ID2      -0.552000
      6 O5          -0.9350     2.3080     5.5710 oh         1 ID2      -0.710000
      7 C9          -0.1460     1.1170     5.3740 c3         1 ID2       0.163600
      8 C8          -0.7320     0.2230     4.2460 c5         1 ID2       0.170300
      9 O4          -0.5170     0.8200     2.9500 os         1 ID2      -0.433000
     10 C1          -0.7960    -0.2040     1.9800 c5         1 ID2       0.349700
     11 N1           0.0870    -0.1450     0.7840 n          1 ID2      -0.317000
     12 N3           2.1480     0.2870    -0.2610 ns         1 ID2      -0.468500
     13 O1           2.4450     0.2120    -2.4910 o          1 ID2      -0.503000
     14 I           -0.5770    -0.6300    -3.5290 i          1 ID2      -0.087800
     15 C7          -0.5690    -1.5800     2.6830 c5         1 ID2      -0.151400
     16 C3          -0.0340    -1.1600     4.0810 c5         1 ID2       0.138300
     17 O3          -0.3930    -2.1060     5.0930 oh         1 ID2      -0.709000
     18 H6          -1.5370    -0.6450    -0.4610 h4         1 ID2       0.216000
     19 HO5         -0.4750     2.8490     6.2550 ho         1 ID2       0.506000
     20 H5'1         0.8900     1.3760     5.1170 h1         1 ID2       0.036700
     21 H5'2        -0.1180     0.5300     6.3020 h1         1 ID2       0.036700
     22 H4          -1.8110     0.0970     4.4130 h1         1 ID2       0.076700
     23 H1          -1.8340    -0.1140     1.6350 h2         1 ID2       0.064700
     24 HN3          3.1220     0.5280    -0.1710 hn         1 ID2       0.343500
     25 H2'1        -1.5190    -2.1220     2.7570 hc         1 ID2       0.073700
     26 H2'2         0.1320    -2.2340     2.1510 hc         1 ID2       0.073700
     27 H3           1.0570    -1.0200     4.0510 h1         1 ID2       0.070700
     28 HO3          0.0920    -2.9420     4.8960 ho         1 ID2       0.512000
@<TRIPOS>BOND
     1     1     5 2   
     2     1    11 1   
     3     1    12 1   
     4     2     3 1   
     5     2    12 1   
     6     2    13 2   
     7     3     4 2   
     8     3    14 1   
     9     4    11 1   
    10     4    18 1   
    11     6     7 1   
    12     6    19 1   
    13     7     8 1   
    14     7    20 1   
    15     7    21 1   
    16     8     9 1   
    17     8    16 1   
    18     8    22 1   
    19     9    10 1   
    20    10    11 1   
    21    10    15 1   
    22    10    23 1   
    23    12    24 1   
    24    15    16 1   
    25    15    25 1   
    26    15    26 1   
    27    16    17 1   
    28    16    27 1   
    29    17    28 1   
@<TRIPOS>SUBSTRUCTURE
     1 ID2         1 TEMP              0 ****  ****    0 ROOT
