@<TRIPOS>MOLECULE
ID3
   34    34     1     0     0
SMALL
No Charge or Current Charge


@<TRIPOS>ATOM
      1 C1          -1.5660     1.0720    -0.1080 c6         1 ID3       0.001200
      2 O1           3.6070     1.3740     0.6360 o          1 ID3      -0.535100
      3 C2          -2.8640     0.4860    -0.7350 c6         1 ID3      -0.069400
      4 C3          -3.3380    -0.7810     0.0010 c6         1 ID3      -0.071400
      5 C4          -2.2810    -1.8960    -0.1160 c6         1 ID3      -0.044200
      6 C5          -0.8410    -1.4330     0.1340 c2         1 ID3      -0.079400
      7 C6          -0.4920    -0.0990     0.0670 ce         1 ID3      -0.101200
      8 C7           0.8880     0.3920     0.2710 ce         1 ID3      -0.080000
      9 C8           2.0230    -0.1640    -0.2470 cf         1 ID3      -0.334200
     10 C9           3.3950     0.3750    -0.0380 c          1 ID3       0.572300
     11 C16         -1.9130     1.7730     1.2730 c3         1 ID3      -0.084100
     12 C17         -1.0710     2.2340    -1.0660 c3         1 ID3      -0.084100
     13 C18          0.0940    -2.6410     0.4030 c3         1 ID3      -0.060900
     14 C19          4.5290    -0.3910    -0.7130 c3         1 ID3      -0.195100
     15 H2          -3.6660     1.2380    -0.7290 hc         1 ID3       0.042700
     16 H2A         -2.6890     0.2370    -1.7910 hc         1 ID3       0.042700
     17 H3          -3.5390    -0.5630     1.0570 hc         1 ID3       0.043700
     18 H4          -2.5510    -2.7010     0.5810 hc         1 ID3       0.047200
     19 H7           0.9870     1.3110     0.8540 ha         1 ID3       0.191000
     20 H8           1.9480    -1.0510    -0.8720 ha         1 ID3       0.182000
     21 H16         -1.0470     2.3070     1.6800 hc         1 ID3       0.036367
     22 H16A        -2.7250     2.5030     1.1630 hc         1 ID3       0.036367
     23 H16B        -2.2210     1.0440     2.0310 hc         1 ID3       0.036367
     24 H17         -0.7730     1.8380    -2.0440 hc         1 ID3       0.036367
     25 H17A        -1.8590     2.9770    -1.2370 hc         1 ID3       0.036367
     26 H17B        -0.2070     2.7680    -0.6520 hc         1 ID3       0.036367
     27 H18         -0.3950    -3.4030     1.0210 hc         1 ID3       0.043700
     28 H18A         0.3980    -3.1190    -0.5360 hc         1 ID3       0.043700
     29 H18B         0.9990    -2.3430     0.9420 hc         1 ID3       0.043700
     30 H19          4.3180    -0.4640    -1.7860 hc         1 ID3       0.059033
     31 H19A         5.5130     0.0510    -0.5210 hc         1 ID3       0.059033
     32 H19B         4.4850    -1.4390    -0.3970 hc         1 ID3       0.059033
     33 H3A         -4.2880    -1.1280    -0.4260 hc         1 ID3       0.043700
     34 H4A         -2.3330    -2.3370    -1.1210 hc         1 ID3       0.047200
@<TRIPOS>BOND
     1     1     3 1   
     2     1     7 1   
     3     1    11 1   
     4     1    12 1   
     5     2    10 2   
     6     3     4 1   
     7     3    15 1   
     8     3    16 1   
     9     4     5 1   
    10     4    17 1   
    11     4    33 1   
    12     5     6 1   
    13     5    18 1   
    14     5    34 1   
    15     6     7 2   
    16     6    13 1   
    17     7     8 1   
    18     8     9 2   
    19     8    19 1   
    20     9    10 1   
    21     9    20 1   
    22    10    14 1   
    23    11    21 1   
    24    11    22 1   
    25    11    23 1   
    26    12    24 1   
    27    12    25 1   
    28    12    26 1   
    29    13    27 1   
    30    13    28 1   
    31    13    29 1   
    32    14    30 1   
    33    14    31 1   
    34    14    32 1   
@<TRIPOS>SUBSTRUCTURE
     1 ID3         1 TEMP              0 ****  ****    0 ROOT
