@<TRIPOS>MOLECULE
ID3
   34    34     1     0     0
SMALL
bcc


@<TRIPOS>ATOM
      1 C1          -1.5330     1.0200    -0.1140 c6         1 ID3       0.001200
      2 O1           3.4710     1.2930     0.8330 o          1 ID3      -0.535100
      3 C2          -2.8470     0.4830    -0.6900 c6         1 ID3      -0.069400
      4 C3          -3.3380    -0.7510     0.0420 c6         1 ID3      -0.071400
      5 C4          -2.3130    -1.8630    -0.0880 c6         1 ID3      -0.044200
      6 C5          -0.8910    -1.4200     0.1240 c2         1 ID3      -0.079400
      7 C6          -0.5340    -0.1200     0.0960 ce         1 ID3      -0.101200
      8 C7           0.8410     0.3290     0.3170 ce         1 ID3      -0.030000
      9 C8           1.9540    -0.1750    -0.2350 cf         1 ID3      -0.284200
     10 C9           3.2910     0.3820     0.0470 c          1 ID3       0.572300
     11 C16         -1.7970     1.7340     1.2180 c3         1 ID3      -0.084100
     12 C17         -0.9690     2.0350    -1.1170 c3         1 ID3      -0.084100
     13 C18          0.0570    -2.5620     0.3590 c3         1 ID3      -0.060900
     14 C19          4.4230    -0.2510    -0.7130 c3         1 ID3      -0.195100
     15 H2          -3.5970     1.2790    -0.6630 hc         1 ID3       0.042700
     16 H2A         -2.7000     0.2320    -1.7470 hc         1 ID3       0.042700
     17 H3          -3.5040    -0.5230     1.0970 hc         1 ID3       0.043700
     18 H4          -2.5410    -2.6740     0.6100 hc         1 ID3       0.047200
     19 H7           0.9610     1.1980     0.9610 ha         1 ID3       0.141000
     20 H8           1.9000    -0.9960    -0.9400 ha         1 ID3       0.132000
     21 H16         -0.8830     2.1380     1.6550 hc         1 ID3       0.036367
     22 H16A        -2.4790     2.5740     1.0660 hc         1 ID3       0.036367
     23 H16B        -2.2480     1.0690     1.9550 hc         1 ID3       0.036367
     24 H17         -0.7410     1.5580    -2.0720 hc         1 ID3       0.036367
     25 H17A        -1.7040     2.8220    -1.3020 hc         1 ID3       0.036367
     26 H17B        -0.0590     2.5200    -0.7580 hc         1 ID3       0.036367
     27 H18         -0.4240    -3.3280     0.9700 hc         1 ID3       0.043700
     28 H18A         0.3270    -3.0440    -0.5840 hc         1 ID3       0.043700
     29 H18B         0.9810    -2.2680     0.8520 hc         1 ID3       0.043700
     30 H19          4.2720    -0.1140    -1.7860 hc         1 ID3       0.059033
     31 H19A         5.3830     0.1750    -0.4320 hc         1 ID3       0.059033
     32 H19B         4.4400    -1.3290    -0.5380 hc         1 ID3       0.059033
     33 H3A         -4.2990    -1.0780    -0.3580 hc         1 ID3       0.043700
     34 H4A         -2.3760    -2.3170    -1.0860 hc         1 ID3       0.047200
@<TRIPOS>BOND
     1     1     3 1   
     2     1     7 1   
     3     1    11 1   
     4     1    12 1   
     5     2    10 2   
     6     3     4 1   
     7     3    15 1   
     8     3    16 1   
     9     4     5 1   
    10     4    17 1   
    11     4    33 1   
    12     5     6 1   
    13     5    18 1   
    14     5    34 1   
    15     6     7 2   
    16     6    13 1   
    17     7     8 1   
    18     8     9 2   
    19     8    19 1   
    20     9    10 1   
    21     9    20 1   
    22    10    14 1   
    23    11    21 1   
    24    11    22 1   
    25    11    23 1   
    26    12    24 1   
    27    12    25 1   
    28    12    26 1   
    29    13    27 1   
    30    13    28 1   
    31    13    29 1   
    32    14    30 1   
    33    14    31 1   
    34    14    32 1   
@<TRIPOS>SUBSTRUCTURE
     1 ID3         1 TEMP              0 ****  ****    0 ROOT
