@<TRIPOS>MOLECULE
ID4
   42    44     1     0     0
SMALL
No Charge or Current Charge


@<TRIPOS>ATOM
      1 CAL         -4.8090    -0.3320     1.1240 c6         1 ID4      -0.070900
      2 CAJ         -5.8340     0.2510     2.1280 c6         1 ID4      -0.072900
      3 CAI         -7.2520    -0.3190     1.8800 c6         1 ID4      -0.074400
      4 CAK         -7.7010    -0.0770     0.4190 c6         1 ID4      -0.072900
      5 CAM         -6.6780    -0.6630    -0.5860 c6         1 ID4      -0.070900
      6 CAW          3.2940    -0.0150     0.1140 ca         1 ID4      -0.308500
      7 CAT          2.4510     0.8940     0.7900 ca         1 ID4       0.251000
      8 CAH         -1.7300    -0.6690    -0.7370 cc         1 ID4      -0.179000
      9 NAO         -2.5420     1.1620    -1.7720 nd         1 ID4      -0.343000
     10 CAU          2.7430    -0.8220    -0.9080 ca         1 ID4       0.251000
     11 CAR          1.0890     1.0040     0.4440 ca         1 ID4       0.131000
     12 FAF          2.9240     1.6670     1.7950 f          1 ID4      -0.116000
     13 CAV          0.5450     0.2050    -0.5810 ca         1 ID4       0.008800
     14 OAB          5.7620    -1.0530    -0.2760 o          1 ID4      -0.520000
     15 OAC          5.5500     1.1770     0.9400 o          1 ID4      -0.520000
     16 NAA          4.9450    -0.9100     2.0070 n8         1 ID4      -1.037100
     17 CAS          1.3800    -0.7100    -1.2510 ca         1 ID4       0.131000
     18 CAQ         -2.8480    -0.0980    -1.2780 cd         1 ID4       0.223300
     19 FAE          0.8760    -1.4880    -2.2400 f          1 ID4      -0.128000
     20 SAZ          5.0170    -0.1330     0.5780 sy         1 ID4       1.168600
     21 NAY         -0.8020     0.3150    -0.9230 na         1 ID4       0.188000
     22 NAP         -1.2740     1.4120    -1.5620 nc         1 ID4      -0.162800
     23 CAN         -4.2330    -0.6830    -1.3680 c3         1 ID4      -0.091700
     24 CAX         -5.2520    -0.0920    -0.3490 c6         1 ID4      -0.060700
     25 H1          -3.8280     0.1260     1.3070 hc         1 ID4       0.036700
     26 H2          -4.6890    -1.4090     1.3060 hc         1 ID4       0.036700
     27 H3          -5.5170     0.0270     3.1560 hc         1 ID4       0.040200
     28 H4          -5.8550     1.3460     2.0400 hc         1 ID4       0.040200
     29 H5          -7.2610    -1.3970     2.0970 hc         1 ID4       0.037700
     30 H6          -7.9670     0.1450     2.5720 hc         1 ID4       0.037700
     31 H7          -8.6880    -0.5300     0.2530 hc         1 ID4       0.040200
     32 H8          -7.8190     1.0010     0.2410 hc         1 ID4       0.040200
     33 H9          -6.6610    -1.7580    -0.4950 hc         1 ID4       0.036700
     34 H10         -7.0060    -0.4410    -1.6110 hc         1 ID4       0.036700
     35 H11         -1.5410    -1.6220    -0.2630 h4         1 ID4       0.175000
     36 H12          5.5050    -0.2810     2.5780 hn         1 ID4       0.492500
     37 H13          5.5990    -1.6690     1.8290 hn         1 ID4       0.492500
     38 H14         -4.6090    -0.5320    -2.3880 hc         1 ID4       0.055200
     39 H15         -4.1710    -1.7700    -1.2370 hc         1 ID4       0.055200
     40 H16         -5.2810     0.9930    -0.5310 hc         1 ID4       0.065700
     41 FAG          3.4980    -1.7190    -1.5830 f          1 ID4      -0.116000
     42 FAD          0.2990     1.8760     1.1170 f          1 ID4      -0.128000
@<TRIPOS>BOND
     1     1     2 1   
     2     1    24 1   
     3     1    25 1   
     4     1    26 1   
     5     2     3 1   
     6     2    27 1   
     7     2    28 1   
     8     3     4 1   
     9     3    29 1   
    10     3    30 1   
    11     4     5 1   
    12     4    31 1   
    13     4    32 1   
    14     5    24 1   
    15     5    33 1   
    16     5    34 1   
    17     6     7 ar  
    18     6    10 ar  
    19     6    20 1   
    20     7    11 ar  
    21     7    12 1   
    22     8    18 2   
    23     8    21 1   
    24     8    35 1   
    25     9    18 1   
    26     9    22 2   
    27    10    17 ar  
    28    10    41 1   
    29    11    13 ar  
    30    11    42 1   
    31    13    17 ar  
    32    13    21 1   
    33    14    20 2   
    34    15    20 2   
    35    16    20 1   
    36    16    36 1   
    37    16    37 1   
    38    17    19 1   
    39    18    23 1   
    40    21    22 1   
    41    23    24 1   
    42    23    38 1   
    43    23    39 1   
    44    24    40 1   
@<TRIPOS>SUBSTRUCTURE
     1 ID4         1 TEMP              0 ****  ****    0 ROOT
