@<TRIPOS>MOLECULE
ID4
   42    44     1     0     0
SMALL
abcg2


@<TRIPOS>ATOM
      1 CAL         -4.8730    -0.4480     1.1400 c6         1 ID4      -0.070900
      2 CAJ         -5.8750     0.1430     2.1270 c6         1 ID4      -0.072900
      3 CAI         -7.3010    -0.2830     1.7960 c6         1 ID4      -0.074400
      4 CAK         -7.6590     0.0670     0.3550 c6         1 ID4      -0.072900
      5 CAM         -6.6540    -0.5280    -0.6250 c6         1 ID4      -0.070900
      6 CAW          3.3290    -0.0320     0.0540 ca         1 ID4      -0.308500
      7 CAT          2.4990     0.8510     0.7360 ca         1 ID4       0.251000
      8 CAH         -1.7090    -0.8000    -0.7500 cc         1 ID4      -0.179000
      9 NAO         -2.5420     1.1100    -1.4480 nd         1 ID4      -0.343000
     10 CAU          2.7690    -0.8510    -0.9150 ca         1 ID4       0.251000
     11 CAR          1.1480     0.9110     0.4690 ca         1 ID4       0.131000
     12 FAF          2.9880     1.6360     1.6810 f          1 ID4      -0.116000
     13 CAV          0.5940     0.0980    -0.5080 ca         1 ID4       0.008800
     14 OAB          5.7220    -0.9880    -0.4260 o          1 ID4      -0.520000
     15 OAC          5.5230     1.3480     0.4450 o          1 ID4      -0.520000
     16 NAA          5.0320    -0.5320     2.0010 n8         1 ID4      -1.037100
     17 CAS          1.4150    -0.7780    -1.1940 ca         1 ID4       0.131000
     18 CAQ         -2.8550    -0.1820    -1.1650 cd         1 ID4       0.223300
     19 FAE          0.9030    -1.5590    -2.1330 f          1 ID4      -0.128000
     20 SAZ          5.0780    -0.0300     0.4470 sy         1 ID4       1.168600
     21 NAY         -0.7710     0.1730    -0.8040 na         1 ID4       0.188000
     22 NAP         -1.3000     1.3210    -1.2320 nc         1 ID4      -0.162800
     23 CAN         -4.2380    -0.7120    -1.3020 c3         1 ID4      -0.091700
     24 CAX         -5.2240    -0.0950    -0.3040 c6         1 ID4      -0.060700
     25 H1          -3.8640    -0.1000     1.3810 hc         1 ID4       0.036700
     26 H2          -4.8580    -1.5400     1.2440 hc         1 ID4       0.036700
     27 H3          -5.6160    -0.1550     3.1460 hc         1 ID4       0.040200
     28 H4          -5.8060     1.2360     2.0980 hc         1 ID4       0.040200
     29 H5          -7.3960    -1.3660     1.9370 hc         1 ID4       0.037700
     30 H6          -8.0080     0.1830     2.4870 hc         1 ID4       0.037700
     31 H7          -8.6660    -0.2840     0.1180 hc         1 ID4       0.040200
     32 H8          -7.6760     1.1570     0.2390 hc         1 ID4       0.040200
     33 H9          -6.7150    -1.6230    -0.5880 hc         1 ID4       0.036700
     34 H10         -6.9090    -0.2380    -1.6490 hc         1 ID4       0.036700
     35 H11         -1.5010    -1.8020    -0.4150 h4         1 ID4       0.175000
     36 H12          5.7110    -0.0640     2.5910 hn         1 ID4       0.492500
     37 H13          5.0560    -1.5400     2.1110 hn         1 ID4       0.492500
     38 H14         -4.5900    -0.5190    -2.3200 hc         1 ID4       0.055200
     39 H15         -4.2240    -1.7980    -1.1780 hc         1 ID4       0.055200
     40 H16         -5.1730     0.9970    -0.4100 hc         1 ID4       0.065700
     41 FAG          3.4840    -1.7140    -1.6130 f          1 ID4      -0.116000
     42 FAD          0.3790     1.7370     1.1570 f          1 ID4      -0.128000
@<TRIPOS>BOND
     1     1     2 1   
     2     1    24 1   
     3     1    25 1   
     4     1    26 1   
     5     2     3 1   
     6     2    27 1   
     7     2    28 1   
     8     3     4 1   
     9     3    29 1   
    10     3    30 1   
    11     4     5 1   
    12     4    31 1   
    13     4    32 1   
    14     5    24 1   
    15     5    33 1   
    16     5    34 1   
    17     6     7 ar  
    18     6    10 ar  
    19     6    20 1   
    20     7    11 ar  
    21     7    12 1   
    22     8    18 2   
    23     8    21 1   
    24     8    35 1   
    25     9    18 1   
    26     9    22 2   
    27    10    17 ar  
    28    10    41 1   
    29    11    13 ar  
    30    11    42 1   
    31    13    17 ar  
    32    13    21 1   
    33    14    20 2   
    34    15    20 2   
    35    16    20 1   
    36    16    36 1   
    37    16    37 1   
    38    17    19 1   
    39    18    23 1   
    40    21    22 1   
    41    23    24 1   
    42    23    38 1   
    43    23    39 1   
    44    24    40 1   
@<TRIPOS>SUBSTRUCTURE
     1 ID4         1 TEMP              0 ****  ****    0 ROOT
