@<TRIPOS>MOLECULE
ID5
   37    39     1     0     0
SMALL
No Charge or Current Charge


@<TRIPOS>ATOM
      1 C2          -1.5910    -0.6650     4.6660 ca         1 ID5      -0.273000
      2 C3          -2.6340     0.5690     2.3730 ca         1 ID5      -0.030000
      3 C4          -0.7120    -0.2430     3.6440 ca         1 ID5       0.245100
      4 C5          -2.9680    -0.4700     4.5370 ca         1 ID5       0.225000
      5 C6          -3.4910     0.1450     3.3980 ca         1 ID5      -0.239000
      6 C7          -1.2330     0.3800     2.4810 ca         1 ID5      -0.237600
      7 F9          -3.7980    -0.8780     5.5210 f          1 ID5      -0.190000
      8 C11         -0.3260     0.8270     1.3600 c          1 ID5       0.634700
      9 C13          0.0290     1.4260    -1.7900 cc         1 ID5       0.394200
     10 O15          0.6560    -0.3960     3.7830 os         1 ID5      -0.269100
     11 O16          0.7540     0.3120     1.1140 o          1 ID5      -0.538100
     12 C18         -0.1240     2.3810    -0.6260 c3         1 ID5       0.071700
     13 C20          1.2620    -1.0120     4.9450 c3         1 ID5      -0.004400
     14 N21          1.1300     1.4110    -2.5600 nd         1 ID5      -0.531100
     15 S22         -1.2950     0.3060    -2.1910 ss         1 ID5       0.131800
     16 C24         -0.2600    -0.2390    -3.5020 ca         1 ID5      -0.262000
     17 C25          1.5860    -0.8910    -5.4820 ca         1 ID5       0.145000
     18 C26          0.9450     0.4370    -3.5420 ca         1 ID5       0.108400
     19 C27         -0.5760    -1.2420    -4.4300 ca         1 ID5       0.226000
     20 C28          0.3540    -1.5710    -5.4280 ca         1 ID5      -0.179000
     21 C29          1.8910     0.1170    -4.5420 ca         1 ID5       0.166000
     22 C32          2.8160    -1.0530     4.8810 c          1 ID5       0.730000
     23 O33          3.4040    -1.5900     5.8110 o          1 ID5      -0.702500
     24 O34          3.3970    -0.5570     3.9230 o          1 ID5      -0.702500
     25 N36         -0.8240     1.8290     0.5550 ns         1 ID5      -0.530900
     26 H2          -1.2260    -1.1400     5.5700 ha         1 ID5       0.146000
     27 H3          -3.0750     1.0210     1.4880 ha         1 ID5       0.104000
     28 H6          -4.5650     0.2870     3.3050 ha         1 ID5       0.121000
     29 H181        -0.6710     3.2640    -0.9790 h1         1 ID5       0.092700
     30 H182         0.8740     2.7170    -0.3170 h1         1 ID5       0.092700
     31 H201         0.9080    -2.0460     5.0520 h1         1 ID5       0.023700
     32 H202         0.9880    -0.4590     5.8520 h1         1 ID5       0.023700
     33 H28          0.1240    -2.3450    -6.1540 ha         1 ID5       0.148000
     34 H36         -1.7130     2.2310     0.8280 hn         1 ID5       0.319500
     35 F14         -1.7610    -1.8860    -4.3670 f          1 ID5      -0.161000
     36 F8           2.4780    -1.2130    -6.4480 f          1 ID5      -0.161000
     37 F23          3.0780     0.7680    -4.6000 f          1 ID5      -0.139000
@<TRIPOS>BOND
     1     1     3 ar  
     2     1     4 ar  
     3     1    26 1   
     4     2     5 ar  
     5     2     6 ar  
     6     2    27 1   
     7     3     6 ar  
     8     3    10 1   
     9     4     5 ar  
    10     4     7 1   
    11     5    28 1   
    12     6     8 1   
    13     8    11 2   
    14     8    25 1   
    15     9    12 1   
    16     9    14 2   
    17     9    15 1   
    18    10    13 1   
    19    12    25 1   
    20    12    29 1   
    21    12    30 1   
    22    13    22 1   
    23    13    31 1   
    24    13    32 1   
    25    14    18 1   
    26    15    16 1   
    27    16    18 ar  
    28    16    19 ar  
    29    17    20 ar  
    30    17    21 ar  
    31    17    36 1   
    32    18    21 ar  
    33    19    20 ar  
    34    19    35 1   
    35    20    33 1   
    36    21    37 1   
    37    22    23 1   
    38    22    24 1   
    39    25    34 1   
@<TRIPOS>SUBSTRUCTURE
     1 ID5         1 TEMP              0 ****  ****    0 ROOT
