@<TRIPOS>MOLECULE
ID5
   37    39     1     0     0
SMALL
abcg2


@<TRIPOS>ATOM
      1 C2          -1.7500    -0.5810     4.6630 ca         1 ID5      -0.273000
      2 C3          -2.2410    -0.2860     1.9490 ca         1 ID5      -0.030000
      3 C4          -0.6870    -0.3290     3.7970 ca         1 ID5       0.245100
      4 C5          -3.0260    -0.6890     4.1390 ca         1 ID5       0.225000
      5 C6          -3.3080    -0.5470     2.7980 ca         1 ID5      -0.239000
      6 C7          -0.9410    -0.1870     2.4220 ca         1 ID5      -0.237600
      7 F9          -4.0300    -0.9400     4.9900 f          1 ID5      -0.190000
      8 C11          0.1860     0.0130     1.4640 c          1 ID5       0.634700
      9 C13          0.6970     0.9380    -1.6750 cc         1 ID5       0.394200
     10 O15          0.5750    -0.1790     4.1920 os         1 ID5      -0.269100
     11 O16          1.1240    -0.7560     1.3750 o          1 ID5      -0.538100
     12 C18          1.0320     1.4680    -0.3140 c3         1 ID5       0.071700
     13 C20          0.8790    -0.2530     5.5760 c3         1 ID5      -0.004400
     14 N21          1.3870     1.1660    -2.7330 nd         1 ID5      -0.531100
     15 S22         -0.7190    -0.0650    -1.8680 ss         1 ID5       0.131800
     16 C24         -0.3320    -0.1930    -3.5430 ca         1 ID5      -0.262000
     17 C25          0.6520    -0.1110    -6.1040 ca         1 ID5       0.145000
     18 C26          0.8330     0.5390    -3.8160 ca         1 ID5       0.108400
     19 C27         -0.9870    -0.8720    -4.5550 ca         1 ID5       0.226000
     20 C28         -0.5040    -0.8400    -5.8420 ca         1 ID5      -0.179000
     21 C29          1.3250     0.5750    -5.1170 ca         1 ID5       0.166000
     22 C32          2.3790    -0.0120     5.8190 c          1 ID5       0.730000
     23 O33          2.6980    -0.0880     7.0210 o          1 ID5      -0.702500
     24 O34          3.1030     0.2300     4.8450 o          1 ID5      -0.702500
     25 N36          0.0500     1.1020     0.6690 ns         1 ID5      -0.530900
     26 H2          -1.6110    -0.6900     5.7290 ha         1 ID5       0.146000
     27 H3          -2.4330    -0.1800     0.8890 ha         1 ID5       0.104000
     28 H6          -4.3180    -0.6380     2.4240 ha         1 ID5       0.121000
     29 H181         1.1030     2.5540    -0.3670 h1         1 ID5       0.092700
     30 H182         2.0150     1.0930    -0.0260 h1         1 ID5       0.092700
     31 H201         0.6030    -1.2350     5.9760 h1         1 ID5       0.023700
     32 H202         0.3030     0.4970     6.1320 h1         1 ID5       0.023700
     33 H28         -1.0070    -1.3680    -6.6410 ha         1 ID5       0.148000
     34 H36         -0.6750     1.7700     0.8790 hn         1 ID5       0.319500
     35 F14         -2.0930    -1.5590    -4.2670 f          1 ID5      -0.161000
     36 F8           1.1250    -0.0760    -7.3500 f          1 ID5      -0.161000
     37 F23          2.4290     1.2620    -5.3990 f          1 ID5      -0.139000
@<TRIPOS>BOND
     1     1     3 ar  
     2     1     4 ar  
     3     1    26 1   
     4     2     5 ar  
     5     2     6 ar  
     6     2    27 1   
     7     3     6 ar  
     8     3    10 1   
     9     4     5 ar  
    10     4     7 1   
    11     5    28 1   
    12     6     8 1   
    13     8    11 2   
    14     8    25 1   
    15     9    12 1   
    16     9    14 2   
    17     9    15 1   
    18    10    13 1   
    19    12    25 1   
    20    12    29 1   
    21    12    30 1   
    22    13    22 1   
    23    13    31 1   
    24    13    32 1   
    25    14    18 1   
    26    15    16 1   
    27    16    18 ar  
    28    16    19 ar  
    29    17    20 ar  
    30    17    21 ar  
    31    17    36 1   
    32    18    21 ar  
    33    19    20 ar  
    34    19    35 1   
    35    20    33 1   
    36    21    37 1   
    37    22    23 1   
    38    22    24 1   
    39    25    34 1   
@<TRIPOS>SUBSTRUCTURE
     1 ID5         1 TEMP              0 ****  ****    0 ROOT
