@<TRIPOS>MOLECULE
ID6
   44    46     1     0     0
SMALL
No Charge or Current Charge


@<TRIPOS>ATOM
      1 Cl          -6.3080    -1.0670     0.9350 cl         1 ID6      -0.198000
      2 C14         -4.8130    -0.5770     0.1480 ca         1 ID6       0.123000
      3 C13         -4.7490    -0.5040    -1.2520 ca         1 ID6      -0.100000
      4 C12         -3.5540    -0.1120    -1.8810 ca         1 ID6      -0.092500
      5 C15         -3.6850    -0.2590     0.9200 ca         1 ID6      -0.100000
      6 C16         -2.4890     0.1320     0.2930 ca         1 ID6      -0.092500
      7 C11         -2.4130     0.2070    -1.1170 ca         1 ID6      -0.112300
      8 C10         -1.1330     0.6280    -1.8460 c3         1 ID6       0.105900
      9 N            0.0950     0.6750    -1.0180 na         1 ID6       0.032000
     10 C8           0.9410    -0.4130    -0.7820 cc         1 ID6      -0.112300
     11 C9           0.6100    -1.8220    -1.2510 c3         1 ID6      -0.025800
     12 C17          0.5740     1.8140    -0.3640 cc         1 ID6      -0.099300
     13 C18         -0.1860     3.1290    -0.3200 c3         1 ID6      -0.040800
     14 C19          1.8060     1.4790     0.1800 cd         1 ID6      -0.186600
     15 C            2.6460     2.4890     0.8960 c          1 ID6       0.612900
     16 O            2.3020     3.6600     1.0060 o          1 ID6      -0.577100
     17 C7           2.0290     0.0950    -0.0820 cd         1 ID6      -0.109800
     18 C4           3.1670    -0.7470     0.2820 cd         1 ID6       0.254900
     19 O1           3.1250    -2.0600    -0.1430 os         1 ID6      -0.359100
     20 C5           4.1560    -3.0340     0.1010 c3         1 ID6       0.165600
     21 C6           3.7040    -4.3500    -0.5510 c3         1 ID6      -0.095100
     22 C3           4.2830    -0.3340     1.0040 cc         1 ID6      -0.350000
     23 C2           4.6230     0.9420     1.5520 cc         1 ID6      -0.063000
     24 C1           3.9330     2.1250     1.5000 cd         1 ID6      -0.326200
     25 H13         -5.6240    -0.7490    -1.8480 ha         1 ID6       0.133000
     26 H15         -3.7380    -0.3160     2.0040 ha         1 ID6       0.133000
     27 H12         -3.5160    -0.0580    -2.9680 ha         1 ID6       0.125000
     28 H16         -1.6300     0.3750     0.9140 ha         1 ID6       0.125000
     29 H101        -0.9570    -0.0560    -2.6850 h1         1 ID6       0.073700
     30 H102        -1.2910     1.6120    -2.3030 h1         1 ID6       0.073700
     31 H91C         1.2910    -2.1420    -2.0480 hc         1 ID6       0.052367
     32 H92C         0.6830    -2.5380    -0.4250 hc         1 ID6       0.052367
     33 H93C        -0.4110    -1.9180    -1.6360 hc         1 ID6       0.052367
     34 H181        -0.2280     3.5240     0.7010 hc         1 ID6       0.060033
     35 H182         0.2940     3.8800    -0.9580 hc         1 ID6       0.060033
     36 H183        -1.2270     3.0320    -0.6440 hc         1 ID6       0.060033
     37 H1           4.3860     2.9850     1.9800 ha         1 ID6       0.188000
     38 H3           5.0580    -1.0580     1.2180 ha         1 ID6       0.176000
     39 H51C         5.1090    -2.7190    -0.3450 h1         1 ID6       0.039700
     40 H52C         4.2990    -3.1950     1.1780 h1         1 ID6       0.039700
     41 H61C         2.7580    -4.6920    -0.1140 hc         1 ID6       0.047700
     42 H62C         3.5640    -4.2180    -1.6300 hc         1 ID6       0.047700
     43 H63C         4.4580    -5.1310    -0.3940 hc         1 ID6       0.047700
     44 H2           5.5770     0.9680     2.0790 ha         1 ID6       0.161000
@<TRIPOS>BOND
     1     1     2 1   
     2     2     3 ar  
     3     2     5 ar  
     4     3     4 ar  
     5     3    25 1   
     6     4     7 ar  
     7     4    27 1   
     8     5     6 ar  
     9     5    26 1   
    10     6     7 ar  
    11     6    28 1   
    12     7     8 1   
    13     8     9 1   
    14     8    29 1   
    15     8    30 1   
    16     9    10 1   
    17     9    12 1   
    18    10    11 1   
    19    10    17 2   
    20    11    31 1   
    21    11    32 1   
    22    11    33 1   
    23    12    13 1   
    24    12    14 2   
    25    13    34 1   
    26    13    35 1   
    27    13    36 1   
    28    14    15 1   
    29    14    17 1   
    30    15    16 2   
    31    15    24 1   
    32    17    18 1   
    33    18    19 1   
    34    18    22 2   
    35    19    20 1   
    36    20    21 1   
    37    20    39 1   
    38    20    40 1   
    39    21    41 1   
    40    21    42 1   
    41    21    43 1   
    42    22    23 1   
    43    22    38 1   
    44    23    24 2   
    45    23    44 1   
    46    24    37 1   
@<TRIPOS>SUBSTRUCTURE
     1 ID6         1 TEMP              0 ****  ****    0 ROOT
