@<TRIPOS>MOLECULE
ID6
   44    46     1     0     0
SMALL
abcg2


@<TRIPOS>ATOM
      1 CL          -5.9570    -0.9840     1.2840 cl         1 ID6      -0.198000
      2 C14         -4.5480    -0.5300     0.3830 ca         1 ID6       0.123000
      3 C13         -4.6080    -0.4860    -1.0020 ca         1 ID6      -0.100000
      4 C12         -3.4770    -0.1250    -1.7140 ca         1 ID6      -0.092500
      5 C15         -3.3780    -0.2200     1.0540 ca         1 ID6      -0.100000
      6 C16         -2.2520     0.1420     0.3260 ca         1 ID6      -0.092500
      7 C11         -2.2880     0.1950    -1.0620 ca         1 ID6      -0.112300
      8 C10         -1.0970     0.6040    -1.8920 c3         1 ID6       0.105900
      9 N            0.1400     0.6640    -1.1430 na         1 ID6       0.032000
     10 C8           0.9300    -0.4140    -0.8730 cc         1 ID6      -0.112300
     11 C9           0.5540    -1.7780    -1.3500 c3         1 ID6      -0.025800
     12 C17          0.6290     1.8010    -0.5730 cc         1 ID6      -0.099300
     13 C18         -0.1130     3.0870    -0.6880 c3         1 ID6      -0.040800
     14 C19          1.8010     1.4630     0.0830 cd         1 ID6      -0.186600
     15 C            2.6060     2.4360     0.8200 c          1 ID6       0.612900
     16 O            2.4210     3.6460     0.6740 o          1 ID6      -0.577100
     17 C7           1.9970     0.0450    -0.1130 cd         1 ID6      -0.109800
     18 C4           3.0920    -0.7840     0.3340 cd         1 ID6       0.254900
     19 O1           3.0930    -1.9760    -0.2660 os         1 ID6      -0.359100
     20 C5           4.0550    -2.9700     0.0690 c3         1 ID6       0.165600
     21 C6           3.7790    -4.1840    -0.7870 c3         1 ID6      -0.095100
     22 C3           4.0280    -0.4490     1.2680 cc         1 ID6      -0.350000
     23 C2           4.1810     0.7910     1.9470 cc         1 ID6      -0.063000
     24 C1           3.6020     2.0040     1.7840 cd         1 ID6      -0.326200
     25 H13         -5.5230    -0.7350    -1.5220 ha         1 ID6       0.133000
     26 H15         -3.3350    -0.2590     2.1340 ha         1 ID6       0.133000
     27 H12         -3.5250    -0.0950    -2.7960 ha         1 ID6       0.125000
     28 H16         -1.3440     0.3790     0.8670 ha         1 ID6       0.125000
     29 H101        -0.9700    -0.0790    -2.7310 h1         1 ID6       0.073700
     30 H102        -1.2760     1.5810    -2.3400 h1         1 ID6       0.073700
     31 H91C         1.1310    -2.0800    -2.2250 hc         1 ID6       0.052367
     32 H92C         0.7190    -2.5240    -0.5780 hc         1 ID6       0.052367
     33 H93C        -0.4990    -1.8330    -1.6190 hc         1 ID6       0.052367
     34 H181         0.2290     3.7970     0.0560 hc         1 ID6       0.060033
     35 H182         0.0310     3.5490    -1.6680 hc         1 ID6       0.060033
     36 H183        -1.1850     2.9420    -0.5470 hc         1 ID6       0.060033
     37 H1           3.9690     2.8050     2.4150 ha         1 ID6       0.188000
     38 H3           4.7590    -1.1940     1.5450 ha         1 ID6       0.176000
     39 H51C         5.0640    -2.5900    -0.1150 h1         1 ID6       0.039700
     40 H52C         3.9800    -3.2230     1.1310 h1         1 ID6       0.039700
     41 H61C         2.7820    -4.5840    -0.6010 hc         1 ID6       0.047700
     42 H62C         3.8710    -3.9530    -1.8480 hc         1 ID6       0.047700
     43 H63C         4.5030    -4.9620    -0.5480 hc         1 ID6       0.047700
     44 H2           4.9490     0.7600     2.7120 ha         1 ID6       0.161000
@<TRIPOS>BOND
     1     1     2 1   
     2     2     3 ar  
     3     2     5 ar  
     4     3     4 ar  
     5     3    25 1   
     6     4     7 ar  
     7     4    27 1   
     8     5     6 ar  
     9     5    26 1   
    10     6     7 ar  
    11     6    28 1   
    12     7     8 1   
    13     8     9 1   
    14     8    29 1   
    15     8    30 1   
    16     9    10 1   
    17     9    12 1   
    18    10    11 1   
    19    10    17 2   
    20    11    31 1   
    21    11    32 1   
    22    11    33 1   
    23    12    13 1   
    24    12    14 2   
    25    13    34 1   
    26    13    35 1   
    27    13    36 1   
    28    14    15 1   
    29    14    17 1   
    30    15    16 2   
    31    15    24 1   
    32    17    18 1   
    33    18    19 1   
    34    18    22 2   
    35    19    20 1   
    36    20    21 1   
    37    20    39 1   
    38    20    40 1   
    39    21    41 1   
    40    21    42 1   
    41    21    43 1   
    42    22    23 1   
    43    22    38 1   
    44    23    24 2   
    45    23    44 1   
    46    24    37 1   
@<TRIPOS>SUBSTRUCTURE
     1 ID6         1 TEMP              0 ****  ****    0 ROOT
