@<TRIPOS>MOLECULE
ID7
   19    19     1     0     0
SMALL
abcg2


@<TRIPOS>ATOM
      1 C1         104.3770   107.7400   108.4480 c          1 ID7       0.721000
      2 O1         103.9890   108.9080   108.2330 o          1 ID7      -0.739000
      3 O2         104.2310   107.1000   109.5090 o          1 ID7      -0.739000
      4 C2         105.1200   107.0450   107.2870 c6         1 ID7      -0.189700
      5 C3         104.3560   107.1770   105.9680 c6         1 ID7      -0.055400
      6 C4         105.0850   106.4690   104.8310 c6         1 ID7      -0.077400
      7 C5         105.3990   105.0290   105.2070 c6         1 ID7       0.167800
      8 C6         105.4330   105.5780   107.5520 c6         1 ID7       0.172800
      9 N1         106.1690   105.0010   106.4370 n7         1 ID7      -0.873400
     10 H2         106.0810   107.5650   107.1590 hc         1 ID7       0.038700
     11 H3         104.1990   108.2280   105.7270 hc         1 ID7       0.038200
     12 H4         103.3610   106.7290   106.0840 hc         1 ID7       0.038200
     13 H5         106.0210   106.9920   104.6090 hc         1 ID7       0.022700
     14 H6         104.4850   106.4900   103.9170 hc         1 ID7       0.022700
     15 H7         104.4500   104.4710   105.2900 h1         1 ID7       0.003200
     16 H8         105.9790   104.5480   104.4150 h1         1 ID7       0.003200
     17 H9         104.4870   105.0430   107.7450 h1         1 ID7       0.032200
     18 H10        106.0390   105.4780   108.4540 h1         1 ID7       0.032200
     19 H11        106.4110   104.0440   106.6580 hn         1 ID7       0.380000
@<TRIPOS>BOND
     1     1     2 1   
     2     1     3 1   
     3     1     4 1   
     4     4     5 1   
     5     4     8 1   
     6     4    10 1   
     7     5     6 1   
     8     5    11 1   
     9     5    12 1   
    10     6     7 1   
    11     6    13 1   
    12     6    14 1   
    13     7     9 1   
    14     7    15 1   
    15     7    16 1   
    16     8     9 1   
    17     8    17 1   
    18     8    18 1   
    19     9    19 1   
@<TRIPOS>SUBSTRUCTURE
     1 ID7         1 TEMP              0 ****  ****    0 ROOT
