@<TRIPOS>MOLECULE
ID7
   19    19     1     0     0
SMALL
No Charge or Current Charge


@<TRIPOS>ATOM
      1 C1         104.3810   107.7940   108.4150 c          1 ID7       0.721000
      2 O1         104.8340   108.8470   108.8390 o          1 ID7      -0.739000
      3 O2         103.4050   107.2380   108.8980 o          1 ID7      -0.739000
      4 C2         105.0790   107.1410   107.2050 c6         1 ID7      -0.189700
      5 C3         104.1480   107.0300   105.9640 c6         1 ID7      -0.055400
      6 C4         104.8830   106.3300   104.7950 c6         1 ID7      -0.077400
      7 C5         105.4760   104.9720   105.2480 c6         1 ID7       0.167800
      8 C6         105.6540   105.7550   107.5820 c6         1 ID7       0.172800
      9 N1         106.3520   105.1300   106.4310 n7         1 ID7      -0.873400
     10 H2         105.9220   107.7910   106.9330 hc         1 ID7       0.038700
     11 H3         103.8120   108.0290   105.6520 hc         1 ID7       0.038200
     12 H4         103.2440   106.4590   106.2200 hc         1 ID7       0.038200
     13 H5         105.6880   106.9780   104.4220 hc         1 ID7       0.022700
     14 H6         104.1920   106.1740   103.9560 hc         1 ID7       0.022700
     15 H7         104.6580   104.2790   105.4960 h1         1 ID7       0.003200
     16 H8         106.0540   104.5270   104.4250 h1         1 ID7       0.003200
     17 H9         104.8410   105.0930   107.9170 h1         1 ID7       0.032200
     18 H10        106.3590   105.8640   108.4200 h1         1 ID7       0.032200
     19 H11        106.6890   104.2030   106.7140 hn         1 ID7       0.380000
@<TRIPOS>BOND
     1     1     2 1   
     2     1     3 1   
     3     1     4 1   
     4     4     5 1   
     5     4     8 1   
     6     4    10 1   
     7     5     6 1   
     8     5    11 1   
     9     5    12 1   
    10     6     7 1   
    11     6    13 1   
    12     6    14 1   
    13     7     9 1   
    14     7    15 1   
    15     7    16 1   
    16     8     9 1   
    17     8    17 1   
    18     8    18 1   
    19     9    19 1   
@<TRIPOS>SUBSTRUCTURE
     1 ID7         1 TEMP              0 ****  ****    0 ROOT
