@<TRIPOS>MOLECULE
ID8
   32    33     1     0     0
SMALL
No Charge or Current Charge


@<TRIPOS>ATOM
      1 O16          1.1070     2.2610     1.5450 o          1 ID8      -0.716000
      2 C14          2.1500     2.0370     0.9420 c          1 ID8       0.720600
      3 O15          2.9790     2.9040     0.7050 o          1 ID8      -0.716000
      4 C13          2.4540     0.6230     0.5030 ca         1 ID8      -0.202600
      5 C12          3.8020     0.2030     0.4120 ca         1 ID8      -0.054000
      6 C11          4.1200    -1.1070     0.0190 ca         1 ID8      -0.190000
      7 C10          3.1000    -2.0180    -0.2810 ca         1 ID8      -0.097000
      8 C9           1.7600    -1.6110    -0.1990 ca         1 ID8      -0.208000
      9 C8           1.4290    -0.2930     0.1700 ca         1 ID8       0.337000
     10 N7           0.0960     0.0960     0.2550 nu         1 ID8      -1.007000
     11 C6          -1.1150    -0.3550    -0.2760 ca         1 ID8       0.350000
     12 C1          -2.3370    -0.0670     0.3880 ca         1 ID8      -0.125300
     13 C17         -2.3370     0.7010     1.7200 c3         1 ID8      -0.042800
     14 C5          -1.1290    -1.0380    -1.5040 ca         1 ID8      -0.178000
     15 C4          -2.3370    -1.4650    -2.0710 ca         1 ID8      -0.091000
     16 C3          -3.5450    -1.1920    -1.4180 ca         1 ID8      -0.171000
     17 C2          -3.5610    -0.4880    -0.1980 ca         1 ID8      -0.057300
     18 C18         -4.9110    -0.1920     0.4520 c3         1 ID8      -0.038800
     19 H12          4.6090     0.8920     0.6560 ha         1 ID8       0.126000
     20 H11          5.1610    -1.4170    -0.0420 ha         1 ID8       0.088000
     21 H10          3.3450    -3.0380    -0.5700 ha         1 ID8       0.081000
     22 H9           0.9800    -2.3350    -0.4080 ha         1 ID8       0.099000
     23 H7           0.0070     0.9390     0.8410 hn         1 ID8       0.568000
     24 H5          -0.2030    -1.2220    -2.0400 ha         1 ID8       0.122000
     25 H171        -2.3980     1.7820     1.5460 hc         1 ID8       0.041700
     26 H172        -3.1780     0.4210     2.3640 hc         1 ID8       0.041700
     27 H173        -1.4360     0.5090     2.3130 hc         1 ID8       0.041700
     28 H4          -2.3380    -1.9940    -3.0210 ha         1 ID8       0.094000
     29 H3          -4.4780    -1.5200    -1.8710 ha         1 ID8       0.092000
     30 H181        -5.0090     0.8720     0.7000 hc         1 ID8       0.030700
     31 H182        -5.7470    -0.4460    -0.2100 hc         1 ID8       0.030700
     32 H183        -5.0390    -0.7710     1.3750 hc         1 ID8       0.030700
@<TRIPOS>BOND
     1     1     2 1   
     2     2     3 1   
     3     2     4 1   
     4     4     5 ar  
     5     4     9 ar  
     6     5     6 ar  
     7     5    19 1   
     8     6     7 ar  
     9     6    20 1   
    10     7     8 ar  
    11     7    21 1   
    12     8     9 ar  
    13     8    22 1   
    14     9    10 1   
    15    10    11 1   
    16    10    23 1   
    17    11    12 ar  
    18    11    14 ar  
    19    12    13 1   
    20    12    17 ar  
    21    13    25 1   
    22    13    26 1   
    23    13    27 1   
    24    14    15 ar  
    25    14    24 1   
    26    15    16 ar  
    27    15    28 1   
    28    16    17 ar  
    29    16    29 1   
    30    17    18 1   
    31    18    30 1   
    32    18    31 1   
    33    18    32 1   
@<TRIPOS>SUBSTRUCTURE
     1 ID8         1 TEMP              0 ****  ****    0 ROOT
