@<TRIPOS>MOLECULE
ID8
   32    33     1     0     0
SMALL
bcc


@<TRIPOS>ATOM
      1 O16          1.0370     2.4460     1.1570 o          1 ID8      -0.821300
      2 C14          2.2100     2.0860     0.8730 c          1 ID8       0.931200
      3 O15          3.2100     2.8200     0.9170 o          1 ID8      -0.821300
      4 C13          2.4200     0.6390     0.4560 ca         1 ID8      -0.202600
      5 C12          3.7260     0.1730     0.3160 ca         1 ID8      -0.072000
      6 C11          4.0160    -1.1340    -0.0350 ca         1 ID8      -0.208000
      7 C10          2.9640    -2.0180    -0.2440 ca         1 ID8      -0.115000
      8 C9           1.6550    -1.5930    -0.1160 ca         1 ID8      -0.226000
      9 C8           1.3540    -0.2630     0.2190 ca         1 ID8       0.198600
     10 N7           0.0570     0.1670     0.3820 nu         1 ID8      -0.675000
     11 C6          -1.0930    -0.3250    -0.2220 ca         1 ID8       0.211600
     12 C1          -2.3250    -0.0960     0.4180 ca         1 ID8      -0.125300
     13 C17         -2.3520     0.6060     1.7460 c3         1 ID8      -0.042800
     14 C5          -1.0650    -0.9780    -1.4580 ca         1 ID8      -0.196000
     15 C4          -2.2410    -1.4090    -2.0460 ca         1 ID8      -0.109000
     16 C3          -3.4590    -1.1720    -1.4260 ca         1 ID8      -0.189000
     17 C2          -3.5110    -0.5080    -0.2030 ca         1 ID8      -0.057300
     18 C18         -4.8470    -0.2490     0.4360 c3         1 ID8      -0.038800
     19 H12          4.5350     0.8700     0.4890 ha         1 ID8       0.144000
     20 H11          5.0430    -1.4620    -0.1380 ha         1 ID8       0.106000
     21 H10          3.1610    -3.0520    -0.4980 ha         1 ID8       0.099000
     22 H9           0.8540    -2.3060    -0.2560 ha         1 ID8       0.117000
     23 H7           0.0400     1.1120     0.7840 hn         1 ID8       0.512800
     24 H5          -0.1260    -1.1250    -1.9740 ha         1 ID8       0.140000
     25 H171        -2.3230     1.6930     1.6320 hc         1 ID8       0.041700
     26 H172        -3.2510     0.3710     2.3120 hc         1 ID8       0.041700
     27 H173        -1.4950     0.3270     2.3600 hc         1 ID8       0.041700
     28 H4          -2.2070    -1.9120    -3.0040 ha         1 ID8       0.112000
     29 H3          -4.3790    -1.4940    -1.8990 ha         1 ID8       0.110000
     30 H181        -4.9940     0.8100     0.6540 hc         1 ID8       0.030700
     31 H182        -5.6580    -0.5680    -0.2170 hc         1 ID8       0.030700
     32 H183        -4.9580    -0.7840     1.3820 hc         1 ID8       0.030700
@<TRIPOS>BOND
     1     1     2 1   
     2     2     3 1   
     3     2     4 1   
     4     4     5 ar  
     5     4     9 ar  
     6     5     6 ar  
     7     5    19 1   
     8     6     7 ar  
     9     6    20 1   
    10     7     8 ar  
    11     7    21 1   
    12     8     9 ar  
    13     8    22 1   
    14     9    10 1   
    15    10    11 1   
    16    10    23 1   
    17    11    12 ar  
    18    11    14 ar  
    19    12    13 1   
    20    12    17 ar  
    21    13    25 1   
    22    13    26 1   
    23    13    27 1   
    24    14    15 ar  
    25    14    24 1   
    26    15    16 ar  
    27    15    28 1   
    28    16    17 ar  
    29    16    29 1   
    30    17    18 1   
    31    18    30 1   
    32    18    31 1   
    33    18    32 1   
@<TRIPOS>SUBSTRUCTURE
     1 ID8         1 TEMP              0 ****  ****    0 ROOT
