@<TRIPOS>MOLECULE
ID9
   44    47     1     0     0
SMALL
bcc


@<TRIPOS>ATOM
      1 C10         31.5770   -44.7450   -16.0180 c3         1 ID9      -0.012900
      2 C11         29.2570   -43.3320   -17.9060 c3         1 ID9      -0.013900
      3 C13         31.0850   -47.2920   -11.8460 c3         1 ID9       0.119100
      4 C16         31.3330   -49.8720    -9.3280 cc         1 ID9      -0.235600
      5 C17         32.0660   -48.8510    -8.7730 cd         1 ID9       0.363800
      6 C19         30.0350   -50.1320   -11.4480 c3         1 ID9       0.028600
      7 C20         32.7750   -48.8210    -7.4940 ca         1 ID9      -0.103500
      8 C21         33.5240   -47.7000    -7.1280 ca         1 ID9      -0.112500
      9 C22         34.1990   -47.6630    -5.9170 ca         1 ID9      -0.132500
     10 C23         34.1420   -48.7420    -5.0460 ca         1 ID9      -0.127000
     11 C24         33.3990   -49.8620    -5.3990 ca         1 ID9      -0.132500
     12 C25         32.7240   -49.9010    -6.6090 ca         1 ID9      -0.112500
     13 C1          27.2440   -45.4600   -13.9680 cc         1 ID9      -0.013000
     14 C2          27.7860   -46.1480   -12.9300 cd         1 ID9      -0.260300
     15 C3          29.2010   -46.3320   -12.9060 cd         1 ID9       0.625600
     16 N4          30.0180   -45.8860   -13.8070 nc         1 ID9      -0.581800
     17 C5          28.1060   -44.9640   -14.9650 cc         1 ID9      -0.096300
     18 N6          29.4490   -45.2170   -14.8130 na         1 ID9       0.209200
     19 C7          30.1060   -44.6600   -15.8680 cc         1 ID9      -0.117300
     20 C8          29.1050   -44.0820   -16.6280 cd         1 ID9       0.047400
     21 N9          27.8860   -44.2750   -16.0660 nd         1 ID9      -0.259600
     22 C14         31.3500   -48.1440   -10.6600 cc         1 ID9       0.382800
     23 N15         30.8910   -49.4120   -10.5290 na         1 ID9      -0.165900
     24 N18         32.0600   -47.7830    -9.6220 nd         1 ID9      -0.650000
     25 H29         31.9180   -45.7810   -16.0690 hc         1 ID9       0.051033
     26 H28         31.8930   -44.2460   -16.9310 hc         1 ID9       0.051033
     27 H30         32.0970   -44.2730   -15.1820 hc         1 ID9       0.051033
     28 H33         28.8350   -42.3300   -17.8240 hc         1 ID9       0.046700
     29 H31         30.3020   -43.2300   -18.1920 hc         1 ID9       0.046700
     30 H32         28.7370   -43.8370   -18.7220 hc         1 ID9       0.046700
     31 H34         31.3830   -47.7920   -12.7730 h1         1 ID9       0.074700
     32 H35         31.6680   -46.3740   -11.7590 h1         1 ID9       0.074700
     33 H36         31.0980   -50.8670    -8.9840 h4         1 ID9       0.177000
     34 H38         30.1740   -51.1990   -11.3010 h1         1 ID9       0.057033
     35 H37         28.9880   -49.8850   -11.2820 h1         1 ID9       0.057033
     36 H39         30.2980   -49.8920   -12.4750 h1         1 ID9       0.057033
     37 H40         33.5790   -46.8530    -7.7990 ha         1 ID9       0.136000
     38 H41         34.7750   -46.7840    -5.6540 ha         1 ID9       0.128500
     39 H42         34.6690   -48.7120    -4.1010 ha         1 ID9       0.129000
     40 H43         33.3440   -50.7110    -4.7300 ha         1 ID9       0.128500
     41 H44         32.1490   -50.7840    -6.8620 ha         1 ID9       0.136000
     42 H26         26.1800   -45.2870   -14.0460 ha         1 ID9       0.168000
     43 H27         27.1810   -46.5550   -12.1330 ha         1 ID9       0.166000
     44 O12         29.6850   -47.0120   -11.8680 os         1 ID9      -0.430100
@<TRIPOS>BOND
     1     1    19 1   
     2     1    25 1   
     3     1    26 1   
     4     1    27 1   
     5     2    20 1   
     6     2    28 1   
     7     2    29 1   
     8     2    30 1   
     9     3    22 1   
    10     3    31 1   
    11     3    32 1   
    12     3    44 1   
    13     4     5 2   
    14     4    23 1   
    15     4    33 1   
    16     5     7 1   
    17     5    24 1   
    18     6    23 1   
    19     6    34 1   
    20     6    35 1   
    21     6    36 1   
    22     7     8 ar  
    23     7    12 ar  
    24     8     9 ar  
    25     8    37 1   
    26     9    10 ar  
    27     9    38 1   
    28    10    11 ar  
    29    10    39 1   
    30    11    12 ar  
    31    11    40 1   
    32    12    41 1   
    33    13    14 2   
    34    13    17 1   
    35    13    42 1   
    36    14    15 1   
    37    14    43 1   
    38    15    16 2   
    39    15    44 1   
    40    16    18 1   
    41    17    18 1   
    42    17    21 2   
    43    18    19 1   
    44    19    20 2   
    45    20    21 1   
    46    22    23 1   
    47    22    24 2   
@<TRIPOS>SUBSTRUCTURE
     1 ID9         1 TEMP              0 ****  ****    0 ROOT
