@<TRIPOS>MOLECULE
ID9
   44    47     1     0     0
SMALL
No Charge or Current Charge


@<TRIPOS>ATOM
      1 C10         31.5320   -44.7930   -16.3260 c3         1 ID9      -0.012900
      2 C11         29.1690   -43.2200   -17.9710 c3         1 ID9      -0.013900
      3 C13         31.1130   -47.3540   -11.8650 c3         1 ID9       0.142300
      4 C16         31.3770   -49.9310    -9.2380 cc         1 ID9      -0.203000
      5 C17         32.0980   -48.8850    -8.7180 cd         1 ID9       0.298500
      6 C19         30.0940   -50.2670   -11.4050 c3         1 ID9       0.057900
      7 C20         32.7960   -48.8530    -7.4140 ca         1 ID9      -0.103500
      8 C21         33.5070   -47.7020    -7.0000 ca         1 ID9      -0.094500
      9 C22         34.1690   -47.6730    -5.7610 ca         1 ID9      -0.114500
     10 C23         34.1320   -48.7940    -4.9160 ca         1 ID9      -0.109000
     11 C24         33.4310   -49.9430    -5.3130 ca         1 ID9      -0.114500
     12 C25         32.7670   -49.9730    -6.5520 ca         1 ID9      -0.094500
     13 C1          27.2300   -45.2470   -13.8980 cc         1 ID9       0.005000
     14 C2          27.7920   -45.9960   -12.8950 cd         1 ID9      -0.177000
     15 C3          29.2010   -46.2840   -12.9740 cd         1 ID9       0.560300
     16 N4          30.0530   -45.9010   -13.9360 nc         1 ID9      -0.581800
     17 C5          28.0950   -44.8170   -14.9380 cc         1 ID9      -0.147000
     18 N6          29.4210   -45.1530   -14.9100 na         1 ID9       0.259900
     19 C7          30.0670   -44.6400   -16.0020 cc         1 ID9      -0.117300
     20 C8          29.0550   -43.9840   -16.6780 cd         1 ID9       0.047400
     21 N9          27.8390   -44.0980   -16.0140 nd         1 ID9      -0.259600
     22 C14         31.3820   -48.2020   -10.6380 cc         1 ID9       0.382800
     23 N15         30.9220   -49.4950   -10.4640 na         1 ID9      -0.144500
     24 N18         32.1000   -47.8160    -9.5930 nd         1 ID9      -0.650000
     25 H29         31.7980   -45.8510   -16.4360 hc         1 ID9       0.051033
     26 H28         31.7900   -44.2830   -17.2610 hc         1 ID9       0.051033
     27 H30         32.1540   -44.3690   -15.5290 hc         1 ID9       0.051033
     28 H33         28.2030   -42.8000   -18.2780 hc         1 ID9       0.046700
     29 H31         29.8780   -42.3890   -17.8730 hc         1 ID9       0.046700
     30 H32         29.5230   -43.8710   -18.7790 hc         1 ID9       0.046700
     31 H34         31.4410   -47.9100   -12.7520 h1         1 ID9       0.074700
     32 H35         31.7130   -46.4370   -11.8000 h1         1 ID9       0.074700
     33 H36         31.1610   -50.9150    -8.8440 h4         1 ID9       0.159000
     34 H38         29.9390   -51.2830   -11.0210 h1         1 ID9       0.057033
     35 H37         29.1210   -49.7770   -11.5280 h1         1 ID9       0.057033
     36 H39         30.5970   -50.3250   -12.3790 h1         1 ID9       0.057033
     37 H40         33.5490   -46.8220    -7.6380 ha         1 ID9       0.118000
     38 H41         34.7120   -46.7810    -5.4560 ha         1 ID9       0.110500
     39 H42         34.6450   -48.7710    -3.9570 ha         1 ID9       0.111000
     40 H43         33.4000   -50.8120    -4.6600 ha         1 ID9       0.110500
     41 H44         32.2320   -50.8760    -6.8350 ha         1 ID9       0.118000
     42 H26         26.1750   -44.9870   -13.9100 ha         1 ID9       0.150000
     43 H27         27.2020   -46.3620   -12.0650 ha         1 ID9       0.148000
     44 O12         29.6980   -47.0380   -11.9430 os         1 ID9      -0.453300
@<TRIPOS>BOND
     1     1    19 1   
     2     1    25 1   
     3     1    26 1   
     4     1    27 1   
     5     2    20 1   
     6     2    28 1   
     7     2    29 1   
     8     2    30 1   
     9     3    22 1   
    10     3    31 1   
    11     3    32 1   
    12     3    44 1   
    13     4     5 2   
    14     4    23 1   
    15     4    33 1   
    16     5     7 1   
    17     5    24 1   
    18     6    23 1   
    19     6    34 1   
    20     6    35 1   
    21     6    36 1   
    22     7     8 ar  
    23     7    12 ar  
    24     8     9 ar  
    25     8    37 1   
    26     9    10 ar  
    27     9    38 1   
    28    10    11 ar  
    29    10    39 1   
    30    11    12 ar  
    31    11    40 1   
    32    12    41 1   
    33    13    14 2   
    34    13    17 1   
    35    13    42 1   
    36    14    15 1   
    37    14    43 1   
    38    15    16 2   
    39    15    44 1   
    40    16    18 1   
    41    17    18 1   
    42    17    21 2   
    43    18    19 1   
    44    19    20 2   
    45    20    21 1   
    46    22    23 1   
    47    22    24 2   
@<TRIPOS>SUBSTRUCTURE
     1 ID9         1 TEMP              0 ****  ****    0 ROOT
