@<TRIPOS>MOLECULE
IDA
   37    38     1     0     0
SMALL
No Charge or Current Charge


@<TRIPOS>ATOM
      1 N2          -0.3050    -0.7850    -5.1290 nt         1 IDA      -0.623000
      2 C10         -1.4210    -0.6270    -4.3810 c          1 IDA       0.599100
      3 O1          -2.2850    -1.4880    -4.3760 o          1 IDA      -0.563100
      4 C9          -1.5150     0.6690    -3.5650 c3         1 IDA      -0.092200
      5 C1          -1.2170     0.4760    -2.1010 cc         1 IDA      -0.065300
      6 N1          -0.0150     0.8290    -1.4550 na         1 IDA      -0.190700
      7 C4          -0.0720     0.5040    -0.1080 ca         1 IDA      -0.040200
      8 C3          -1.2820    -0.0730     0.1560 ca         1 IDA      -0.106800
      9 C2          -1.9930    -0.0800    -1.0960 cd         1 IDA      -0.260200
     10 C5          -1.6380    -0.5210     1.4310 ca         1 IDA      -0.090000
     11 C6          -0.6950    -0.3580     2.4700 ca         1 IDA      -0.116300
     12 C12         -1.0290    -0.8190     3.8830 c3         1 IDA      -0.017100
     13 C13         -1.6350     0.3150     4.7360 c3         1 IDA      -0.077400
     14 C14         -1.9840    -0.1250     6.1710 c3         1 IDA      -0.087100
     15 C7           0.5590     0.2520     2.1990 ca         1 IDA      -0.126000
     16 C8           0.8950     0.6950     0.8960 ca         1 IDA      -0.018300
     17 C11          2.2290     1.4010     0.6250 c3         1 IDA      -0.175100
     18 C15          2.9890     0.7580    -0.5480 c          1 IDA       0.726000
     19 O3           2.7530     1.1700    -1.6770 o          1 IDA      -0.726500
     20 O2           3.7060    -0.2040    -0.3160 o          1 IDA      -0.726500
     21 HN21        -0.1940    -1.6230    -5.6800 hn         1 IDA       0.302000
     22 HN22         0.4120    -0.0740    -5.1270 hn         1 IDA       0.302000
     23 HC91        -2.5330     1.0620    -3.6610 hc         1 IDA       0.054700
     24 HC92        -0.8070     1.4040    -3.9680 hc         1 IDA       0.054700
     25 HN1          0.8260     1.1930    -1.9060 hn         1 IDA       0.417000
     26 HC2         -2.9950    -0.4740    -1.2430 ha         1 IDA       0.178000
     27 HC5         -2.6090    -0.9760     1.6130 ha         1 IDA       0.089000
     28 H121        -0.1250    -1.1970     4.3770 hc         1 IDA       0.032700
     29 H122        -1.7330    -1.6590     3.8490 hc         1 IDA       0.032700
     30 H131        -2.5420     0.6900     4.2460 hc         1 IDA       0.040700
     31 H132        -0.9270     1.1520     4.7810 hc         1 IDA       0.040700
     32 H141        -2.4100     0.7140     6.7350 hc         1 IDA       0.022367
     33 H142        -2.7180    -0.9390     6.1600 hc         1 IDA       0.022367
     34 H143        -1.0880    -0.4730     6.6990 hc         1 IDA       0.022367
     35 HC7          1.2700     0.3880     3.0110 ha         1 IDA       0.099000
     36 H111         1.9830     2.4420     0.3820 hc         1 IDA       0.032700
     37 H112         2.8330     1.3080     1.5360 hc         1 IDA       0.032700
@<TRIPOS>BOND
     1     1     2 1   
     2     1    21 1   
     3     1    22 1   
     4     2     3 2   
     5     2     4 1   
     6     4     5 1   
     7     4    23 1   
     8     4    24 1   
     9     5     6 1   
    10     5     9 2   
    11     6     7 1   
    12     6    25 1   
    13     7     8 ar  
    14     7    16 ar  
    15     8     9 1   
    16     8    10 ar  
    17     9    26 1   
    18    10    11 ar  
    19    10    27 1   
    20    11    12 1   
    21    11    15 ar  
    22    12    13 1   
    23    12    28 1   
    24    12    29 1   
    25    13    14 1   
    26    13    30 1   
    27    13    31 1   
    28    14    32 1   
    29    14    33 1   
    30    14    34 1   
    31    15    16 ar  
    32    15    35 1   
    33    16    17 1   
    34    17    18 1   
    35    17    36 1   
    36    17    37 1   
    37    18    19 1   
    38    18    20 1   
@<TRIPOS>SUBSTRUCTURE
     1 IDA         1 TEMP              0 ****  ****    0 ROOT
