@<TRIPOS>MOLECULE
IDA
   37    38     1     0     0
SMALL
abcg2


@<TRIPOS>ATOM
      1 N2          -0.5940    -0.0320    -5.6230 nt         1 IDA      -0.623000
      2 C10         -0.7140    -0.3800    -4.3330 c          1 IDA       0.599100
      3 O1          -0.3380    -1.4520    -3.8890 o          1 IDA      -0.563100
      4 C9          -1.3830     0.6750    -3.4620 c3         1 IDA      -0.092200
      5 C1          -1.2040     0.4340    -2.0080 cc         1 IDA      -0.065300
      6 N1          -0.0080     0.6580    -1.3910 na         1 IDA      -0.190700
      7 C4          -0.1150     0.3330    -0.0690 ca         1 IDA      -0.040200
      8 C3          -1.4380    -0.0900     0.1700 ca         1 IDA      -0.106800
      9 C2          -2.1160    -0.0090    -1.0850 cd         1 IDA      -0.260200
     10 C5          -1.8050    -0.4720     1.4680 ca         1 IDA      -0.090000
     11 C6          -0.8630    -0.4320     2.4790 ca         1 IDA      -0.116300
     12 C12         -1.2330    -0.7820     3.8960 c3         1 IDA      -0.017100
     13 C13         -1.5370     0.4550     4.7440 c3         1 IDA      -0.077400
     14 C14         -1.9030     0.1060     6.1800 c3         1 IDA      -0.087100
     15 C7           0.4480     0.0090     2.1970 ca         1 IDA      -0.126000
     16 C8           0.8540     0.4110     0.9370 ca         1 IDA      -0.018300
     17 C11          2.2310     0.9580     0.6680 c3         1 IDA      -0.175100
     18 C15          3.0080     0.1560    -0.4010 c          1 IDA       0.726000
     19 O3           2.7280     0.4040    -1.6000 o          1 IDA      -0.726500
     20 O2           3.8380    -0.6740    -0.0010 o          1 IDA      -0.726500
     21 HN21        -0.2460    -0.6920    -6.3000 hn         1 IDA       0.302000
     22 HN22        -0.9450     0.8440    -5.9700 hn         1 IDA       0.302000
     23 HC91        -2.4500     0.6740    -3.6990 hc         1 IDA       0.054700
     24 HC92        -1.0130     1.6670    -3.7400 hc         1 IDA       0.054700
     25 HN1          0.9120     0.7870    -1.8180 hn         1 IDA       0.417000
     26 HC2         -3.1490    -0.2440    -1.2880 ha         1 IDA       0.178000
     27 HC5         -2.8180    -0.7960     1.6810 ha         1 IDA       0.089000
     28 H121        -0.4210    -1.3450     4.3660 hc         1 IDA       0.032700
     29 H122        -2.1060    -1.4410     3.9000 hc         1 IDA       0.032700
     30 H131        -2.3540     1.0120     4.2780 hc         1 IDA       0.040700
     31 H132        -0.6690     1.1210     4.7330 hc         1 IDA       0.040700
     32 H141        -2.1330     1.0000     6.7610 hc         1 IDA       0.022367
     33 H142        -2.7790    -0.5450     6.2160 hc         1 IDA       0.022367
     34 H143        -1.0850    -0.4130     6.6820 hc         1 IDA       0.022367
     35 HC7          1.1660     0.0510     3.0100 ha         1 IDA       0.099000
     36 H111         2.1310     1.9940     0.3290 hc         1 IDA       0.032700
     37 H112         2.7910     0.9770     1.6030 hc         1 IDA       0.032700
@<TRIPOS>BOND
     1     1     2 1   
     2     1    21 1   
     3     1    22 1   
     4     2     3 2   
     5     2     4 1   
     6     4     5 1   
     7     4    23 1   
     8     4    24 1   
     9     5     6 1   
    10     5     9 2   
    11     6     7 1   
    12     6    25 1   
    13     7     8 ar  
    14     7    16 ar  
    15     8     9 1   
    16     8    10 ar  
    17     9    26 1   
    18    10    11 ar  
    19    10    27 1   
    20    11    12 1   
    21    11    15 ar  
    22    12    13 1   
    23    12    28 1   
    24    12    29 1   
    25    13    14 1   
    26    13    30 1   
    27    13    31 1   
    28    14    32 1   
    29    14    33 1   
    30    14    34 1   
    31    15    16 ar  
    32    15    35 1   
    33    16    17 1   
    34    17    18 1   
    35    17    36 1   
    36    17    37 1   
    37    18    19 1   
    38    18    20 1   
@<TRIPOS>SUBSTRUCTURE
     1 IDA         1 TEMP              0 ****  ****    0 ROOT
