@<TRIPOS>MOLECULE
IDB
   46    47     1     0     0
SMALL
abcg2


@<TRIPOS>ATOM
      1 I1           5.0850     2.8890    -0.0730 i          1 IDB      -0.312000
      2 I2           5.3680    -3.0240    -1.2340 i          1 IDB      -0.354500
      3 I3          10.2310    -0.1910     0.7810 i          1 IDB      -0.333500
      4 O1           3.4080    -0.7080     1.0630 o          1 IDB      -0.575100
      5 O2           8.1530     2.6410     1.9160 o          1 IDB      -0.677250
      6 O3           8.7670     3.0430    -0.2030 o          1 IDB      -0.677250
      7 N1           4.1890    -0.0380    -0.9400 ns         1 IDB      -0.182500
      8 C1           7.5260     1.1140     0.2550 ca         1 IDB      -0.041600
      9 C2           6.1890     1.0960    -0.1270 ca         1 IDB       0.210000
     10 C3           5.5360    -0.0620    -0.5500 ca         1 IDB       0.005000
     11 C4           6.2700    -1.2460    -0.5810 ca         1 IDB       0.174500
     12 C5           7.6010    -1.2770    -0.1980 ca         1 IDB      -0.057000
     13 C6           8.2040    -0.0980     0.2120 ca         1 IDB       0.210000
     14 C7           3.1870    -0.3810    -0.0860 c          1 IDB       0.611100
     15 C8           1.8100    -0.3420    -0.7040 c3         1 IDB      -0.155400
     16 C10          0.6810    -0.3440     0.3140 c3         1 IDB      -0.067400
     17 C11         -0.6830    -0.3440    -0.3640 c3         1 IDB      -0.067400
     18 O4          -3.4130    -0.7220    -1.1050 o          1 IDB      -0.575100
     19 O5          -8.1960     2.6920    -1.8730 o          1 IDB      -0.677250
     20 O6          -8.7720     3.0560     0.2640 o          1 IDB      -0.677250
     21 N2          -4.1870    -0.0300     0.8930 ns         1 IDB      -0.182500
     22 C12         -7.5370     1.1370    -0.2510 ca         1 IDB      -0.041600
     23 C13         -6.1970     1.1150     0.1180 ca         1 IDB       0.210000
     24 C14         -5.5370    -0.0510     0.5110 ca         1 IDB       0.005000
     25 C15         -6.2670    -1.2380     0.5210 ca         1 IDB       0.174500
     26 C16         -7.6000    -1.2640     0.1480 ca         1 IDB      -0.057000
     27 C17         -8.2100    -0.0780    -0.2300 ca         1 IDB       0.210000
     28 C18         -3.1880    -0.3830     0.0400 c          1 IDB       0.611100
     29 C19         -1.8100    -0.3430     0.6550 c3         1 IDB      -0.155400
     30 H1           3.9640     0.2630    -1.8770 hn         1 IDB       0.161000
     31 H5           8.1580    -2.2020    -0.2240 ha         1 IDB       0.120000
     32 H8C1         1.7290     0.5290    -1.3610 hc         1 IDB       0.057450
     33 H8C2         1.7230    -1.2140    -1.3620 hc         1 IDB       0.057450
     34 H101         0.7670    -1.2210     0.9610 hc         1 IDB       0.052950
     35 H102         0.7690     0.5300     0.9650 hc         1 IDB       0.052950
     36 H111        -0.7720     0.5310    -1.0140 hc         1 IDB       0.052950
     37 H112        -0.7690    -1.2200    -1.0120 hc         1 IDB       0.052950
     38 HB          -3.9570     0.2960     1.8200 hn         1 IDB       0.161000
     39 H16         -8.1540    -2.1920     0.1560 ha         1 IDB       0.120000
     40 H191        -1.7220    -1.2160     1.3120 hc         1 IDB       0.057450
     41 H192        -1.7290     0.5280     1.3120 hc         1 IDB       0.057450
     42 I4          -5.0980     2.9120     0.0880 i          1 IDB      -0.312000
     43 I5          -5.3600    -3.0250     1.1400 i          1 IDB      -0.354500
     44 I6         -10.2440    -0.1650    -0.7790 i          1 IDB      -0.333500
     45 C9           8.2200     2.4040     0.7040 c          1 IDB       0.720600
     46 C20         -8.2410     2.4330    -0.6640 c          1 IDB       0.720600
@<TRIPOS>BOND
     1     1     9 1   
     2     2    11 1   
     3     3    13 1   
     4     4    14 2   
     5     5    45 1   
     6     6    45 1   
     7     7    10 1   
     8     7    14 1   
     9     7    30 1   
    10     8     9 ar  
    11     8    13 ar  
    12     8    45 1   
    13     9    10 ar  
    14    10    11 ar  
    15    11    12 ar  
    16    12    13 ar  
    17    12    31 1   
    18    14    15 1   
    19    15    16 1   
    20    15    32 1   
    21    15    33 1   
    22    16    17 1   
    23    16    34 1   
    24    16    35 1   
    25    17    29 1   
    26    17    36 1   
    27    17    37 1   
    28    18    28 2   
    29    19    46 1   
    30    20    46 1   
    31    21    24 1   
    32    21    28 1   
    33    21    38 1   
    34    22    23 ar  
    35    22    27 ar  
    36    22    46 1   
    37    23    24 ar  
    38    23    42 1   
    39    24    25 ar  
    40    25    26 ar  
    41    25    43 1   
    42    26    27 ar  
    43    26    39 1   
    44    27    44 1   
    45    28    29 1   
    46    29    40 1   
    47    29    41 1   
@<TRIPOS>SUBSTRUCTURE
     1 IDB         1 TEMP              0 ****  ****    0 ROOT
