@<TRIPOS>MOLECULE
IDB
   46    47     1     0     0
SMALL
No Charge or Current Charge


@<TRIPOS>ATOM
      1 I1           3.8190     2.0670     1.5740 i          1 IDB      -0.312000
      2 I2           5.8030    -1.6920    -3.0050 i          1 IDB      -0.354500
      3 I3           9.9170     1.4140     0.3200 i          1 IDB      -0.333500
      4 O1           3.7220    -2.2980    -0.2420 o          1 IDB      -0.575100
      5 O2           7.2980     2.0600     2.9000 o          1 IDB      -0.677250
      6 O3           7.1680     3.6760     1.4710 o          1 IDB      -0.677250
      7 N1           3.7910    -0.0890    -0.8440 ns         1 IDB      -0.182500
      8 C1           6.7910     1.5150     0.6950 ca         1 IDB      -0.041600
      9 C2           5.4530     1.1760     0.4200 ca         1 IDB       0.210000
     10 C3           5.1460     0.2430    -0.5930 ca         1 IDB       0.005000
     11 C4           6.1940    -0.3310    -1.3470 ca         1 IDB       0.174500
     12 C5           7.5260     0.0110    -1.0720 ca         1 IDB      -0.057000
     13 C6           7.8260     0.9270    -0.0520 ca         1 IDB       0.210000
     14 C7           3.1520    -1.3030    -0.6750 c          1 IDB       0.611100
     15 C8           1.6710    -1.3160    -1.0770 c3         1 IDB      -0.155400
     16 C10          0.7460    -1.3220     0.1640 c3         1 IDB      -0.067400
     17 C11         -0.7540    -1.3190    -0.2040 c3         1 IDB      -0.067400
     18 O4          -3.7320    -2.2910     0.1920 o          1 IDB      -0.575100
     19 O5          -7.2980     2.1020    -2.9120 o          1 IDB      -0.677250
     20 O6          -7.1640     3.7060    -1.4690 o          1 IDB      -0.677250
     21 N2          -3.7960    -0.0870     0.8130 ns         1 IDB      -0.182500
     22 C12         -6.7920     1.5370    -0.7120 ca         1 IDB      -0.041600
     23 C13         -5.4540     1.1930    -0.4400 ca         1 IDB       0.210000
     24 C14         -5.1500     0.2510     0.5660 ca         1 IDB       0.005000
     25 C15         -6.2000    -0.3280     1.3140 ca         1 IDB       0.174500
     26 C16         -7.5310     0.0210     1.0420 ca         1 IDB      -0.057000
     27 C17         -7.8280     0.9450     0.0300 ca         1 IDB       0.210000
     28 C18         -3.1600    -1.3010     0.6340 c          1 IDB       0.611100
     29 C19         -1.6800    -1.3210     1.0360 c3         1 IDB      -0.155400
     30 H1           3.2060     0.6750    -1.1570 hn         1 IDB       0.161000
     31 H5           8.3290    -0.4270    -1.6560 ha         1 IDB       0.120000
     32 H8C1         1.4410    -0.4270    -1.6770 hc         1 IDB       0.057450
     33 H8C2         1.4750    -2.2210    -1.6630 hc         1 IDB       0.057450
     34 H101         0.9650    -2.2070     0.7750 hc         1 IDB       0.052950
     35 H102         0.9670    -0.4440     0.7840 hc         1 IDB       0.052950
     36 H111        -0.9730    -0.4340    -0.8170 hc         1 IDB       0.052950
     37 H112        -0.9760    -2.1980    -0.8240 hc         1 IDB       0.052950
     38 HB          -3.2090     0.6730     1.1340 hn         1 IDB       0.161000
     39 H16         -8.3350    -0.4210     1.6230 ha         1 IDB       0.120000
     40 H191        -1.4860    -2.2320     1.6140 hc         1 IDB       0.057450
     41 H192        -1.4470    -0.4380     1.6440 hc         1 IDB       0.057450
     42 I4          -3.8190     2.0890    -1.5860 i          1 IDB      -0.312000
     43 I5          -5.8130    -1.7040     2.9610 i          1 IDB      -0.354500
     44 I6          -9.9180     1.4410    -0.3380 i          1 IDB      -0.333500
     45 C9           7.1100     2.4920     1.7710 c          1 IDB       0.720600
     46 C20         -7.1080     2.5240    -1.7790 c          1 IDB       0.720600
@<TRIPOS>BOND
     1     1     9 1   
     2     2    11 1   
     3     3    13 1   
     4     4    14 2   
     5     5    45 1   
     6     6    45 1   
     7     7    10 1   
     8     7    14 1   
     9     7    30 1   
    10     8     9 ar  
    11     8    13 ar  
    12     8    45 1   
    13     9    10 ar  
    14    10    11 ar  
    15    11    12 ar  
    16    12    13 ar  
    17    12    31 1   
    18    14    15 1   
    19    15    16 1   
    20    15    32 1   
    21    15    33 1   
    22    16    17 1   
    23    16    34 1   
    24    16    35 1   
    25    17    29 1   
    26    17    36 1   
    27    17    37 1   
    28    18    28 2   
    29    19    46 1   
    30    20    46 1   
    31    21    24 1   
    32    21    28 1   
    33    21    38 1   
    34    22    23 ar  
    35    22    27 ar  
    36    22    46 1   
    37    23    24 ar  
    38    23    42 1   
    39    24    25 ar  
    40    25    26 ar  
    41    25    43 1   
    42    26    27 ar  
    43    26    39 1   
    44    27    44 1   
    45    28    29 1   
    46    29    40 1   
    47    29    41 1   
@<TRIPOS>SUBSTRUCTURE
     1 IDB         1 TEMP              0 ****  ****    0 ROOT
