@<TRIPOS>MOLECULE
IDC
   47    49     1     0     0
SMALL
abcg2


@<TRIPOS>ATOM
      1 C1A         -0.3090     0.0700    -1.3520 c6         1 IDC       0.372300
      2 C2A         -1.2400     0.7120    -2.3790 c6         1 IDC       0.110300
      3 C3A         -1.1110    -0.0450    -3.6930 c6         1 IDC       0.138300
      4 C4A          0.3480    -0.1200    -4.1280 c6         1 IDC       0.141300
      5 C5A          1.1930    -0.6950    -2.9880 c6         1 IDC       0.178300
      6 C6A          2.6690    -0.6850    -3.3210 c3         1 IDC       0.173600
      7 O2A         -2.5860     0.6470    -1.9790 oh         1 IDC      -0.728000
      8 O3A         -1.8310     0.5710    -4.7330 oh         1 IDC      -0.663000
      9 O4A          0.5020    -0.9490    -5.2530 oh         1 IDC      -0.717000
     10 O5A          1.0060     0.0850    -1.8250 os         1 IDC      -0.444000
     11 O6A          3.3730    -1.3480    -2.2990 oh         1 IDC      -0.710000
     12 C1B          0.4320    -0.0680     3.7780 cc         1 IDC       0.350800
     13 C2B          1.6050     0.2310     2.9020 c6         1 IDC       0.115000
     14 C3B          1.1340     0.9890     1.6680 c6         1 IDC       0.168300
     15 C4B          0.0060     0.1920     1.0160 c6         1 IDC       0.175300
     16 C5B         -1.2360     0.1510     1.9270 c6         1 IDC       0.064300
     17 C6B         -2.2420    -0.8750     1.4260 c3         1 IDC       0.147600
     18 O2B          2.5560     1.0200     3.5680 oh         1 IDC      -0.656000
     19 O3B          2.1670     1.1520     0.7420 oh         1 IDC      -0.686000
     20 O4B         -0.3780     0.8160    -0.1890 os         1 IDC      -0.441000
     21 N1B         -0.8330    -0.1200     3.3040 na         1 IDC      -0.158500
     22 O6B         -3.4850    -0.6430     2.0460 oh         1 IDC      -0.663000
     23 N2B          0.4870    -0.3050     5.0620 nd         1 IDC      -0.674000
     24 C7B         -0.8070    -0.5110     5.4470 cd         1 IDC       0.225900
     25 C8B         -1.6440    -0.3990     4.3770 cc         1 IDC      -0.205000
     26 HC1A        -0.6290    -0.9740    -1.1740 h2         1 IDC       0.026700
     27 HC2A        -0.9150     1.7520    -2.5340 h1         1 IDC       0.073700
     28 HC3A        -1.4660    -1.0760    -3.5310 h1         1 IDC       0.050700
     29 HC4A         0.7020     0.9020    -4.3370 h1         1 IDC       0.058700
     30 HC5A         0.8730    -1.7350    -2.8080 h1         1 IDC       0.057700
     31 HCA1         2.9980     0.3570    -3.4360 h1         1 IDC       0.038200
     32 HCA2         2.8080    -1.1750    -4.2900 h1         1 IDC       0.038200
     33 HO2A        -2.7400     1.3100    -1.2990 ho         1 IDC       0.525000
     34 HO3A        -2.7710     0.4770    -4.5540 ho         1 IDC       0.465000
     35 HO4A        -0.0500    -0.6000    -5.9590 ho         1 IDC       0.526000
     36 HO6A         4.2960    -1.3980    -2.5620 ho         1 IDC       0.505000
     37 HC2B         2.0540    -0.7180     2.5680 h1         1 IDC       0.060700
     38 HC3B         0.7300     1.9620     1.9930 h1         1 IDC       0.057700
     39 HC4B         0.3580    -0.8330     0.8290 h1         1 IDC       0.068700
     40 HC5B        -1.6980     1.1440     1.8970 h1         1 IDC       0.091700
     41 HCB1        -2.3340    -0.7760     0.3400 h1         1 IDC       0.039700
     42 HCB2        -1.8560    -1.8800     1.6340 h1         1 IDC       0.039700
     43 HO2B         2.8540     0.5410     4.3480 ho         1 IDC       0.474000
     44 HO3B         2.8640     1.6640     1.1660 ho         1 IDC       0.521000
     45 HO6B        -4.0820    -1.3550     1.7980 ho         1 IDC       0.454000
     46 HC7B        -1.0720    -0.7260     6.4700 h4         1 IDC       0.039100
     47 HC8B        -2.7110    -0.4890     4.2890 h4         1 IDC       0.173000
@<TRIPOS>BOND
     1     1     2 1   
     2     1    10 1   
     3     1    20 1   
     4     1    26 1   
     5     2     3 1   
     6     2     7 1   
     7     2    27 1   
     8     3     4 1   
     9     3     8 1   
    10     3    28 1   
    11     4     5 1   
    12     4     9 1   
    13     4    29 1   
    14     5     6 1   
    15     5    10 1   
    16     5    30 1   
    17     6    11 1   
    18     6    31 1   
    19     6    32 1   
    20     7    33 1   
    21     8    34 1   
    22     9    35 1   
    23    11    36 1   
    24    12    13 1   
    25    12    21 1   
    26    12    23 2   
    27    13    14 1   
    28    13    18 1   
    29    13    37 1   
    30    14    15 1   
    31    14    19 1   
    32    14    38 1   
    33    15    16 1   
    34    15    20 1   
    35    15    39 1   
    36    16    17 1   
    37    16    21 1   
    38    16    40 1   
    39    17    22 1   
    40    17    41 1   
    41    17    42 1   
    42    18    43 1   
    43    19    44 1   
    44    21    25 1   
    45    22    45 1   
    46    23    24 1   
    47    24    25 2   
    48    24    46 1   
    49    25    47 1   
@<TRIPOS>SUBSTRUCTURE
     1 IDC         1 TEMP              0 ****  ****    0 ROOT
