@<TRIPOS>MOLECULE
IDC
   47    49     1     0     0
SMALL
No Charge or Current Charge


@<TRIPOS>ATOM
      1 C1A         -0.4810     0.2400    -1.4110 c6         1 IDC       0.372300
      2 C2A         -1.2030     0.9890    -2.5790 c6         1 IDC       0.110300
      3 C3A         -1.1340     0.1010    -3.8530 c6         1 IDC       0.138300
      4 C4A          0.3480    -0.2480    -4.1850 c6         1 IDC       0.141300
      5 C5A          1.0220    -0.8990    -2.9330 c6         1 IDC       0.178300
      6 C6A          2.5430    -1.1910    -3.1540 c3         1 IDC       0.173600
      7 O2A         -2.5780     1.3240    -2.2640 oh         1 IDC      -0.728000
      8 O3A         -1.7620     0.7710    -4.9590 oh         1 IDC      -0.663000
      9 O4A          0.3960    -1.1060    -5.3410 oh         1 IDC      -0.717000
     10 O5A          0.8850    -0.0160    -1.7870 os         1 IDC      -0.444000
     11 O6A          3.1890    -1.7640    -1.9980 oh         1 IDC      -0.710000
     12 C1B          0.5650    -0.0200     3.7870 cc         1 IDC       0.350800
     13 C2B          1.6530     0.5810     2.9120 c6         1 IDC       0.115000
     14 C3B          0.9880     1.3520     1.7400 c6         1 IDC       0.168300
     15 C4B         -0.0300     0.4170     1.0010 c6         1 IDC       0.175300
     16 C5B         -1.2180     0.0130     1.9490 c6         1 IDC       0.064300
     17 C6B         -2.0990    -1.1220     1.3260 c3         1 IDC       0.147600
     18 O2B          2.5320     1.4590     3.6550 oh         1 IDC      -0.656000
     19 O3B          2.0180     1.8690     0.8740 oh         1 IDC      -0.686000
     20 O4B         -0.5110     1.0500    -0.2160 os         1 IDC      -0.441000
     21 N1B         -0.7110    -0.2920     3.3260 na         1 IDC      -0.158500
     22 O6B         -3.3400    -1.3260     2.0190 oh         1 IDC      -0.663000
     23 N2B          0.6800    -0.3410     5.0680 nd         1 IDC      -0.674000
     24 C7B         -0.5570    -0.8140     5.4510 cd         1 IDC       0.225900
     25 C8B         -1.4350    -0.7750     4.4000 cc         1 IDC      -0.205000
     26 HC1A        -0.9880    -0.7170    -1.2260 h2         1 IDC       0.026700
     27 HC2A        -0.6330     1.9100    -2.7740 h1         1 IDC       0.073700
     28 HC3A        -1.6690    -0.8370    -3.6380 h1         1 IDC       0.050700
     29 HC4A         0.8790     0.6920    -4.4020 h1         1 IDC       0.058700
     30 HC5A         0.5220    -1.8520    -2.7060 h1         1 IDC       0.057700
     31 HCA1         3.0330    -0.2480    -3.4320 h1         1 IDC       0.038200
     32 HCA2         2.6400    -1.8720    -4.0110 h1         1 IDC       0.038200
     33 HO2A        -2.5560     1.8000    -1.3980 ho         1 IDC       0.525000
     34 HO3A        -2.5420     1.2260    -4.5630 ho         1 IDC       0.465000
     35 HO4A        -0.2900    -0.7450    -5.9540 ho         1 IDC       0.526000
     36 HO6A         4.1480    -1.8420    -2.2140 ho         1 IDC       0.505000
     37 HC2B         2.2380    -0.2490     2.4880 h1         1 IDC       0.060700
     38 HC3B         0.4170     2.1910     2.1660 h1         1 IDC       0.057700
     39 HC4B         0.5170    -0.5000     0.7310 h1         1 IDC       0.068700
     40 HC5B        -1.8650     0.8960     2.0410 h1         1 IDC       0.091700
     41 HCB1        -2.3290    -0.8530     0.2880 h1         1 IDC       0.039700
     42 HCB2        -1.5120    -2.0500     1.3060 h1         1 IDC       0.039700
     43 HO2B         2.5390     1.1090     4.5770 ho         1 IDC       0.474000
     44 HO3B         2.7280     2.1760     1.4860 ho         1 IDC       0.521000
     45 HO6B        -3.8160    -2.0530     1.5570 ho         1 IDC       0.454000
     46 HC7B        -0.7520    -1.1420     6.4650 h4         1 IDC       0.039100
     47 HC8B        -2.4810    -1.0460     4.3550 h4         1 IDC       0.173000
@<TRIPOS>BOND
     1     1     2 1   
     2     1    10 1   
     3     1    20 1   
     4     1    26 1   
     5     2     3 1   
     6     2     7 1   
     7     2    27 1   
     8     3     4 1   
     9     3     8 1   
    10     3    28 1   
    11     4     5 1   
    12     4     9 1   
    13     4    29 1   
    14     5     6 1   
    15     5    10 1   
    16     5    30 1   
    17     6    11 1   
    18     6    31 1   
    19     6    32 1   
    20     7    33 1   
    21     8    34 1   
    22     9    35 1   
    23    11    36 1   
    24    12    13 1   
    25    12    21 1   
    26    12    23 2   
    27    13    14 1   
    28    13    18 1   
    29    13    37 1   
    30    14    15 1   
    31    14    19 1   
    32    14    38 1   
    33    15    16 1   
    34    15    20 1   
    35    15    39 1   
    36    16    17 1   
    37    16    21 1   
    38    16    40 1   
    39    17    22 1   
    40    17    41 1   
    41    17    42 1   
    42    18    43 1   
    43    19    44 1   
    44    21    25 1   
    45    22    45 1   
    46    23    24 1   
    47    24    25 2   
    48    24    46 1   
    49    25    47 1   
@<TRIPOS>SUBSTRUCTURE
     1 IDC         1 TEMP              0 ****  ****    0 ROOT
