@<TRIPOS>MOLECULE
IDD
   36    38     1     0     0
SMALL
abcg2


@<TRIPOS>ATOM
      1 C1           2.8580    -0.1250    -0.0120 ca         1 IDD      -0.100500
      2 C2           3.5220    -1.3160     0.2890 ca         1 IDD      -0.097000
      3 C3           4.9080    -1.3790     0.2760 ca         1 IDD      -0.114500
      4 C4           5.6590    -0.2540    -0.0380 ca         1 IDD      -0.111000
      5 C5           5.0080     0.9360    -0.3410 ca         1 IDD      -0.114500
      6 C6           3.6240     1.0000    -0.3300 ca         1 IDD      -0.097000
      7 C1B         -0.6080    -0.7850     0.1240 cc         1 IDD       0.351800
      8 C2B         -1.8120    -1.6670     0.2350 c6         1 IDD       0.129000
      9 C3B         -2.9930    -0.9660    -0.4160 c6         1 IDD       0.136300
     10 C4B         -3.1320     0.4340     0.1780 c6         1 IDD       0.167300
     11 C5B         -1.9320     1.3230    -0.1620 c6         1 IDD       0.083300
     12 C6B         -1.9290     2.5560     0.7310 c3         1 IDD       0.152600
     13 O2B         -1.6070    -2.8980    -0.4050 oh         1 IDD      -0.714000
     14 O3B         -4.2010    -1.6380    -0.1660 oh         1 IDD      -0.668000
     15 O4B         -4.2620     1.0910    -0.3310 oh         1 IDD      -0.716000
     16 N1B         -0.6970     0.5570    -0.0320 na         1 IDD      -0.157500
     17 O6B         -1.0660     3.5260     0.1880 oh         1 IDD      -0.664000
     18 N2B          0.6310    -1.1900     0.1590 nd         1 IDD      -0.670000
     19 C7B          1.3980    -0.0680     0.0050 cd         1 IDD       0.289500
     20 C8B          0.5850     1.0300    -0.1170 cc         1 IDD      -0.183000
     21 H21          2.9460    -2.1980     0.5390 ha         1 IDD       0.118000
     22 H31          5.4020    -2.3120     0.5160 ha         1 IDD       0.110000
     23 H41          6.7400    -0.3030    -0.0490 ha         1 IDD       0.110000
     24 H51          5.5810     1.8190    -0.5930 ha         1 IDD       0.110000
     25 H61          3.1370     1.9340    -0.5810 ha         1 IDD       0.118000
     26 H2B1        -2.0470    -1.8140     1.3010 h1         1 IDD       0.058700
     27 H3B1        -2.8030    -0.8770    -1.4970 h1         1 IDD       0.067700
     28 H4B1        -3.1970     0.3310     1.2740 h1         1 IDD       0.049700
     29 H5B1        -2.0300     1.6350    -1.2070 h1         1 IDD       0.098700
     30 H6B1        -1.6300     2.2540     1.7420 h1         1 IDD       0.043200
     31 H6B2        -2.9560     2.9330     0.7950 h1         1 IDD       0.043200
     32 HO21        -0.8460    -3.3280     0.0020 ho         1 IDD       0.535000
     33 HO31        -4.2540    -2.4100    -0.7370 ho         1 IDD       0.472000
     34 HO41        -5.0300     0.5360    -0.1550 ho         1 IDD       0.533000
     35 HO61        -0.9510     4.2260     0.8370 ho         1 IDD       0.454000
     36 H8B1         0.8010     2.0750    -0.2470 h4         1 IDD       0.176000
@<TRIPOS>BOND
     1     1     2 ar  
     2     1     6 ar  
     3     1    19 1   
     4     2     3 ar  
     5     2    21 1   
     6     3     4 ar  
     7     3    22 1   
     8     4     5 ar  
     9     4    23 1   
    10     5     6 ar  
    11     5    24 1   
    12     6    25 1   
    13     7     8 1   
    14     7    16 1   
    15     7    18 2   
    16     8     9 1   
    17     8    13 1   
    18     8    26 1   
    19     9    10 1   
    20     9    14 1   
    21     9    27 1   
    22    10    11 1   
    23    10    15 1   
    24    10    28 1   
    25    11    12 1   
    26    11    16 1   
    27    11    29 1   
    28    12    17 1   
    29    12    30 1   
    30    12    31 1   
    31    13    32 1   
    32    14    33 1   
    33    15    34 1   
    34    16    20 1   
    35    17    35 1   
    36    18    19 1   
    37    19    20 2   
    38    20    36 1   
@<TRIPOS>SUBSTRUCTURE
     1 IDD         1 TEMP              0 ****  ****    0 ROOT
