@<TRIPOS>MOLECULE
IDD
   36    38     1     0     0
SMALL
No Charge or Current Charge


@<TRIPOS>ATOM
      1 C1           2.8820    -0.1750     0.0030 ca         1 IDD      -0.100500
      2 C2           3.5660    -1.4030     0.1520 ca         1 IDD      -0.097000
      3 C3           4.9710    -1.4520     0.1210 ca         1 IDD      -0.114500
      4 C4           5.7130    -0.2740    -0.0610 ca         1 IDD      -0.111000
      5 C5           5.0470     0.9520    -0.2110 ca         1 IDD      -0.114500
      6 C6           3.6430     1.0030    -0.1800 ca         1 IDD      -0.097000
      7 C1B         -0.6350    -0.8220     0.1680 cc         1 IDD       0.351800
      8 C2B         -1.8810    -1.6900     0.2830 c6         1 IDD       0.129000
      9 C3B         -3.0690    -0.9500    -0.3940 c6         1 IDD       0.136300
     10 C4B         -3.1940     0.4900     0.1860 c6         1 IDD       0.167300
     11 C5B         -1.9330     1.3580    -0.1490 c6         1 IDD       0.083300
     12 C6B         -1.9460     2.6810     0.6830 c3         1 IDD       0.152600
     13 O2B         -1.6980    -2.9990    -0.3090 oh         1 IDD      -0.714000
     14 O3B         -4.2920    -1.6840    -0.1940 oh         1 IDD      -0.668000
     15 O4B         -4.3930     1.0870    -0.3320 oh         1 IDD      -0.716000
     16 N1B         -0.6830     0.5500     0.0040 na         1 IDD      -0.157500
     17 O6B         -1.0300     3.6720     0.1840 oh         1 IDD      -0.664000
     18 N2B          0.6190    -1.2480     0.1960 nd         1 IDD      -0.670000
     19 C7B          1.4030    -0.1220     0.0340 cd         1 IDD       0.289500
     20 C8B          0.6190     0.9970    -0.1000 cc         1 IDD      -0.183000
     21 H21          3.0120    -2.3280     0.2940 ha         1 IDD       0.118000
     22 H31          5.4840    -2.4040     0.2380 ha         1 IDD       0.110000
     23 H41          6.8000    -0.3120    -0.0850 ha         1 IDD       0.110000
     24 H51          5.6200     1.8660    -0.3520 ha         1 IDD       0.110000
     25 H61          3.1530     1.9660    -0.2990 ha         1 IDD       0.118000
     26 H2B1        -2.1140    -1.8020     1.3530 h1         1 IDD       0.058700
     27 H3B1        -2.8530    -0.8710    -1.4710 h1         1 IDD       0.067700
     28 H4B1        -3.2690     0.4020     1.2810 h1         1 IDD       0.049700
     29 H5B1        -2.0040     1.6430    -1.2080 h1         1 IDD       0.098700
     30 H6B1        -1.7140     2.4360     1.7290 h1         1 IDD       0.043200
     31 H6B2        -2.9640     3.0920     0.6650 h1         1 IDD       0.043200
     32 HO21        -0.7300    -3.1900    -0.2280 ho         1 IDD       0.535000
     33 HO31        -4.0440    -2.6320    -0.3100 ho         1 IDD       0.472000
     34 HO41        -5.0220     0.3260    -0.4080 ho         1 IDD       0.533000
     35 HO61        -1.1310     4.4710     0.7500 ho         1 IDD       0.454000
     36 H8B1         0.8840     2.0330    -0.2600 h4         1 IDD       0.176000
@<TRIPOS>BOND
     1     1     2 ar  
     2     1     6 ar  
     3     1    19 1   
     4     2     3 ar  
     5     2    21 1   
     6     3     4 ar  
     7     3    22 1   
     8     4     5 ar  
     9     4    23 1   
    10     5     6 ar  
    11     5    24 1   
    12     6    25 1   
    13     7     8 1   
    14     7    16 1   
    15     7    18 2   
    16     8     9 1   
    17     8    13 1   
    18     8    26 1   
    19     9    10 1   
    20     9    14 1   
    21     9    27 1   
    22    10    11 1   
    23    10    15 1   
    24    10    28 1   
    25    11    12 1   
    26    11    16 1   
    27    11    29 1   
    28    12    17 1   
    29    12    30 1   
    30    12    31 1   
    31    13    32 1   
    32    14    33 1   
    33    15    34 1   
    34    16    20 1   
    35    17    35 1   
    36    18    19 1   
    37    19    20 2   
    38    20    36 1   
@<TRIPOS>SUBSTRUCTURE
     1 IDD         1 TEMP              0 ****  ****    0 ROOT
