@<TRIPOS>MOLECULE
IDE
   41    43     1     0     0
SMALL
bcc


@<TRIPOS>ATOM
      1 O6B          2.2270     3.4990     0.8660 oh         1 IDE      -0.600800
      2 C6B          2.8430     2.6790    -0.0980 c3         1 IDE       0.128400
      3 C5B          2.8900     1.2440     0.4090 c6         1 IDE       0.054000
      4 C4B          3.8960     0.4320    -0.4140 c6         1 IDE       0.145100
      5 O4B          5.1670     0.8710    -0.0130 oh         1 IDE      -0.591800
      6 C3B          3.7340    -1.0700    -0.1960 c6         1 IDE       0.115100
      7 O3B          4.7810    -1.7020    -0.8870 oh         1 IDE      -0.604800
      8 C2B          2.3730    -1.5070    -0.7160 c6         1 IDE       0.101800
      9 O2B          2.1760    -2.8560    -0.3850 oh         1 IDE      -0.591800
     10 N1B          1.5780     0.6080     0.3550 na         1 IDE      -0.178900
     11 C8B          0.3880     1.1090     0.8230 cc         1 IDE      -0.208600
     12 C7B         -0.5360     0.1300     0.6060 cd         1 IDE       0.281600
     13 N2B          0.0580    -0.9510     0.0180 nd         1 IDE      -0.682000
     14 C1B          1.3180    -0.6330    -0.1140 cc         1 IDE       0.356800
     15 C7          -1.9920     0.1410     0.9210 c3         1 IDE       0.197500
     16 N1          -2.7640    -0.0900    -0.2810 nu         1 IDE      -0.750600
     17 C1          -4.1320    -0.2130    -0.2380 ca         1 IDE       0.175600
     18 C6          -4.8160    -0.7530    -1.3400 ca         1 IDE      -0.205000
     19 C5          -6.1960    -0.8460    -1.3420 ca         1 IDE      -0.087000
     20 C4          -6.9440    -0.4100    -0.2520 ca         1 IDE      -0.182000
     21 C3          -6.2740     0.1180     0.8420 ca         1 IDE      -0.087000
     22 C2          -4.8890     0.2150     0.8610 ca         1 IDE      -0.205000
     23 H6B          2.0950     4.3690     0.4790 ho         1 IDE       0.416000
     24 H6B1         2.3070     2.6920    -1.0560 h1         1 IDE       0.043200
     25 H6B2         3.8700     3.0040    -0.2940 h1         1 IDE       0.043200
     26 H5B          3.2270     1.2410     1.4510 h1         1 IDE       0.099700
     27 H4B          3.7270     0.6410    -1.4830 h1         1 IDE       0.048700
     28 H3           5.8220     0.4540    -0.5810 ho         1 IDE       0.433000
     29 H3B          3.7860    -1.2800     0.8840 h1         1 IDE       0.067700
     30 H2           4.8110    -2.6270    -0.6260 ho         1 IDE       0.433000
     31 H2B          2.3640    -1.3680    -1.8080 h1         1 IDE       0.058700
     32 H1           1.3120    -3.1260    -0.7140 ho         1 IDE       0.436000
     33 H8B          0.3010     2.0900     1.2550 h4         1 IDE       0.196000
     34 H71         -2.2110    -0.6130     1.6910 h1         1 IDE       0.045200
     35 H72         -2.2530     1.1110     1.3520 h1         1 IDE       0.045200
     36 HN1         -2.3070    -0.6900    -0.9510 hn         1 IDE       0.423800
     37 H8          -4.2520    -1.1010    -2.1970 ha         1 IDE       0.127000
     38 H7          -6.6920    -1.2680    -2.2070 ha         1 IDE       0.123500
     39 H6          -8.0230    -0.4830    -0.2580 ha         1 IDE       0.129000
     40 H5          -6.8330     0.4600     1.7050 ha         1 IDE       0.123500
     41 H4          -4.4050     0.6300     1.7350 ha         1 IDE       0.127000
@<TRIPOS>BOND
     1     1     2 1   
     2     1    23 1   
     3     2     3 1   
     4     2    24 1   
     5     2    25 1   
     6     3     4 1   
     7     3    10 1   
     8     3    26 1   
     9     4     5 1   
    10     4     6 1   
    11     4    27 1   
    12     5    28 1   
    13     6     7 1   
    14     6     8 1   
    15     6    29 1   
    16     7    30 1   
    17     8     9 1   
    18     8    14 1   
    19     8    31 1   
    20     9    32 1   
    21    10    11 1   
    22    10    14 1   
    23    11    12 2   
    24    11    33 1   
    25    12    13 1   
    26    12    15 1   
    27    13    14 2   
    28    15    16 1   
    29    15    34 1   
    30    15    35 1   
    31    16    17 1   
    32    16    36 1   
    33    17    18 ar  
    34    17    22 ar  
    35    18    19 ar  
    36    18    37 1   
    37    19    20 ar  
    38    19    38 1   
    39    20    21 ar  
    40    20    39 1   
    41    21    22 ar  
    42    21    40 1   
    43    22    41 1   
@<TRIPOS>SUBSTRUCTURE
     1 IDE         1 TEMP              0 ****  ****    0 ROOT
