@<TRIPOS>MOLECULE
IDE
   41    43     1     0     0
SMALL
No Charge or Current Charge


@<TRIPOS>ATOM
      1 O6B          2.5080     3.5950     1.2240 oh         1 IDE      -0.663000
      2 C6B          3.1390     2.7800     0.2210 c3         1 IDE       0.151600
      3 C5B          2.9990     1.2480     0.4970 c6         1 IDE       0.083300
      4 C4B          4.0120     0.4390    -0.3850 c6         1 IDE       0.168300
      5 O4B          5.3650     0.6390     0.0560 oh         1 IDE      -0.714000
      6 C3B          3.7030    -1.0880    -0.3570 c6         1 IDE       0.138300
      7 O3B          4.7240    -1.8230    -1.0590 oh         1 IDE      -0.667000
      8 C2B          2.3120    -1.3560    -0.9960 c6         1 IDE       0.125000
      9 O2B          1.9730    -2.7600    -0.8980 oh         1 IDE      -0.714000
     10 N1B          1.6110     0.7180     0.3230 na         1 IDE      -0.157500
     11 C8B          0.4470     1.2380     0.8520 cc         1 IDE      -0.176000
     12 C7B         -0.5470     0.3670     0.4870 cd         1 IDE       0.216300
     13 N2B         -0.0200    -0.6940    -0.2370 nd         1 IDE      -0.682000
     14 C1B          1.2830    -0.4630    -0.3180 cc         1 IDE       0.356800
     15 C7          -2.0320     0.4880     0.8190 c3         1 IDE       0.197500
     16 N1          -2.8660    -0.1750    -0.2090 nu         1 IDE      -0.944200
     17 C1          -4.2490    -0.3450    -0.1970 ca         1 IDE       0.314000
     18 C6          -4.8230    -1.3160    -1.0330 ca         1 IDE      -0.187000
     19 C5          -6.2150    -1.5110    -1.0450 ca         1 IDE      -0.069000
     20 C4          -7.0380    -0.7300    -0.2170 ca         1 IDE      -0.164000
     21 C3          -6.4700     0.2450     0.6210 ca         1 IDE      -0.069000
     22 C2          -5.0770     0.4370     0.6290 ca         1 IDE      -0.187000
     23 H6B          2.6730     4.5340     0.9800 ho         1 IDE       0.455000
     24 H6B1         2.7170     2.9940    -0.7710 h1         1 IDE       0.043200
     25 H6B2         4.2090     3.0280     0.1770 h1         1 IDE       0.043200
     26 H5B          3.2760     1.0830     1.5470 h1         1 IDE       0.099700
     27 H4B          3.9090     0.7800    -1.4260 h1         1 IDE       0.048700
     28 H3           5.8440    -0.1580    -0.2840 ho         1 IDE       0.532000
     29 H3B          3.6650    -1.4140     0.6950 h1         1 IDE       0.067700
     30 H2           4.3200    -2.7030    -1.2500 ho         1 IDE       0.472000
     31 H2B          2.3620    -1.0650    -2.0560 h1         1 IDE       0.058700
     32 H1           0.9860    -2.7840    -0.8180 ho         1 IDE       0.535000
     33 H8B          0.4010     2.1510     1.4310 h4         1 IDE       0.178000
     34 H71         -2.2090     0.0300     1.8020 h1         1 IDE       0.045200
     35 H72         -2.2940     1.5530     0.8910 h1         1 IDE       0.045200
     36 HN1         -2.3460    -0.7940    -0.8350 hn         1 IDE       0.479000
     37 H8          -4.1910    -1.9230    -1.6760 ha         1 IDE       0.109000
     38 H7          -6.6550    -2.2660    -1.6940 ha         1 IDE       0.105500
     39 H6          -8.1160    -0.8790    -0.2240 ha         1 IDE       0.111000
     40 H5          -7.1080     0.8520     1.2610 ha         1 IDE       0.105500
     41 H4          -4.6500     1.1960     1.2770 ha         1 IDE       0.109000
@<TRIPOS>BOND
     1     1     2 1   
     2     1    23 1   
     3     2     3 1   
     4     2    24 1   
     5     2    25 1   
     6     3     4 1   
     7     3    10 1   
     8     3    26 1   
     9     4     5 1   
    10     4     6 1   
    11     4    27 1   
    12     5    28 1   
    13     6     7 1   
    14     6     8 1   
    15     6    29 1   
    16     7    30 1   
    17     8     9 1   
    18     8    14 1   
    19     8    31 1   
    20     9    32 1   
    21    10    11 1   
    22    10    14 1   
    23    11    12 2   
    24    11    33 1   
    25    12    13 1   
    26    12    15 1   
    27    13    14 2   
    28    15    16 1   
    29    15    34 1   
    30    15    35 1   
    31    16    17 1   
    32    16    36 1   
    33    17    18 ar  
    34    17    22 ar  
    35    18    19 ar  
    36    18    37 1   
    37    19    20 ar  
    38    19    38 1   
    39    20    21 ar  
    40    20    39 1   
    41    21    22 ar  
    42    21    40 1   
    43    22    41 1   
@<TRIPOS>SUBSTRUCTURE
     1 IDE         1 TEMP              0 ****  ****    0 ROOT
