@<TRIPOS>MOLECULE
IDG
   26    26     1     0     0
SMALL
bcc


@<TRIPOS>ATOM
      1 C5           8.5640    -6.1760    -5.9570 c6         1 IDG       0.075100
      2 O5           8.9670    -6.1650    -4.5990 os         1 IDG      -0.451600
      3 C1           8.3190    -5.1520    -3.8470 c6         1 IDG       0.356900
      4 O1           8.8260    -5.1690    -2.5720 oh         1 IDG      -0.575800
      5 C2           6.7980    -5.3890    -3.8120 c6         1 IDG       0.092500
      6 N2           6.5220    -6.4170    -2.8170 n8         1 IDG      -0.910800
      7 C3           6.2360    -5.6430    -5.2170 c6         1 IDG       0.096100
      8 O3           6.1910    -4.3820    -5.8500 oh         1 IDG      -0.595800
      9 C4           7.1080    -6.6180    -6.0300 c6         1 IDG       0.092100
     10 O4           6.9300    -7.9500    -5.5930 oh         1 IDG      -0.596800
     11 C6           9.5270    -7.0660    -6.7360 c3         1 IDG       0.155800
     12 N6          10.9040    -6.6100    -6.7660 n8         1 IDG      -0.876800
     13 H5           8.6310    -5.1610    -6.3800 h1         1 IDG       0.049700
     14 H1           8.5400    -4.1780    -4.3060 h2         1 IDG       0.070700
     15 HO1          8.2280    -5.7640    -2.0780 ho         1 IDG       0.444000
     16 H2           6.3400    -4.4670    -3.4430 h1         1 IDG       0.084700
     17 HN21         6.5340    -7.3480    -3.2090 hn         1 IDG       0.361800
     18 HN22         5.6050    -6.2830    -2.4160 hn         1 IDG       0.361800
     19 H3           5.2280    -6.0710    -5.1190 h1         1 IDG       0.049700
     20 HO3          5.8530    -4.4930    -6.7450 ho         1 IDG       0.411000
     21 H4           6.7790    -6.5820    -7.0770 h1         1 IDG       0.067700
     22 HO4          7.6280    -8.1740    -4.9670 ho         1 IDG       0.422000
     23 H61          9.5120    -8.0820    -6.3310 h1         1 IDG       0.062200
     24 H62          9.1590    -7.1410    -7.7620 h1         1 IDG       0.062200
     25 HN61        10.9470    -5.6800    -7.1640 hn         1 IDG       0.345800
     26 HN62        11.2540    -6.5230    -5.8200 hn         1 IDG       0.345800
@<TRIPOS>BOND
     1     1     2 1   
     2     1     9 1   
     3     1    11 1   
     4     1    13 1   
     5     2     3 1   
     6     3     4 1   
     7     3     5 1   
     8     3    14 1   
     9     4    15 1   
    10     5     6 1   
    11     5     7 1   
    12     5    16 1   
    13     6    17 1   
    14     6    18 1   
    15     7     8 1   
    16     7     9 1   
    17     7    19 1   
    18     8    20 1   
    19     9    10 1   
    20     9    21 1   
    21    10    22 1   
    22    11    12 1   
    23    11    23 1   
    24    11    24 1   
    25    12    25 1   
    26    12    26 1   
@<TRIPOS>SUBSTRUCTURE
     1 IDG         1 TEMP              0 ****  ****    0 ROOT
