@<TRIPOS>MOLECULE
IDG
   26    26     1     0     0
SMALL
No Charge or Current Charge


@<TRIPOS>ATOM
      1 C5           8.5900    -6.1630    -6.0160 c6         1 IDG       0.098300
      2 O5           9.0540    -6.1280    -4.6440 os         1 IDG      -0.498000
      3 C1           8.3900    -5.1310    -3.8390 c6         1 IDG       0.403300
      4 O1           8.8230    -5.3680    -2.5190 oh         1 IDG      -0.638000
      5 C2           6.8340    -5.3530    -3.7940 c6         1 IDG       0.092500
      6 N2           6.4690    -6.4180    -2.7810 n8         1 IDG      -1.021200
      7 C3           6.2450    -5.6240    -5.2250 c6         1 IDG       0.119300
      8 O3           6.1560    -4.3820    -5.9470 oh         1 IDG      -0.658000
      9 C4           7.1140    -6.6620    -6.0130 c6         1 IDG       0.115300
     10 O4           7.0610    -7.9490    -5.3690 oh         1 IDG      -0.719000
     11 C6           9.5530    -7.0770    -6.8440 c3         1 IDG       0.155800
     12 N6          10.9760    -6.6560    -6.7790 n8         1 IDG      -0.987200
     13 H5           8.6420    -5.1490    -6.4400 h1         1 IDG       0.049700
     14 H1           8.6450    -4.1160    -4.1840 h2         1 IDG       0.070700
     15 HO1          8.0450    -5.9140    -2.2230 ho         1 IDG       0.483000
     16 H2           6.3980    -4.4120    -3.4230 h1         1 IDG       0.084700
     17 HN21         6.3210    -7.3020    -3.2900 hn         1 IDG       0.417000
     18 HN22         5.5250    -6.2220    -2.4170 hn         1 IDG       0.417000
     19 H3           5.2310    -6.0360    -5.1080 h1         1 IDG       0.049700
     20 HO3          5.5050    -4.5140    -6.6730 ho         1 IDG       0.450000
     21 H4           6.7450    -6.7340    -7.0480 h1         1 IDG       0.067700
     22 HO4          7.8340    -7.9430    -4.7530 ho         1 IDG       0.521000
     23 H61          9.4790    -8.1080    -6.4720 h1         1 IDG       0.062200
     24 H62          9.2270    -7.0760    -7.8950 h1         1 IDG       0.062200
     25 HN61        11.0540    -5.6940    -7.1320 hn         1 IDG       0.401000
     26 HN62        11.2140    -6.5520    -5.7840 hn         1 IDG       0.401000
@<TRIPOS>BOND
     1     1     2 1   
     2     1     9 1   
     3     1    11 1   
     4     1    13 1   
     5     2     3 1   
     6     3     4 1   
     7     3     5 1   
     8     3    14 1   
     9     4    15 1   
    10     5     6 1   
    11     5     7 1   
    12     5    16 1   
    13     6    17 1   
    14     6    18 1   
    15     7     8 1   
    16     7     9 1   
    17     7    19 1   
    18     8    20 1   
    19     9    10 1   
    20     9    21 1   
    21    10    22 1   
    22    11    12 1   
    23    11    23 1   
    24    11    24 1   
    25    12    25 1   
    26    12    26 1   
@<TRIPOS>SUBSTRUCTURE
     1 IDG         1 TEMP              0 ****  ****    0 ROOT
