@<TRIPOS>MOLECULE
IDH
   14    14     1     0     0
SMALL
bcc


@<TRIPOS>ATOM
      1 N1          -1.3370     0.0850     2.4300 ns         1 IDH      -0.584900
      2 C2          -0.1980    -0.0410     3.1310 c          1 IDH       0.833500
      3 O2          -0.1170    -0.0460     4.3430 o          1 IDH      -0.629500
      4 N3           0.9510    -0.1620     2.3440 ns         1 IDH      -0.620500
      5 C4           1.0780     0.1070     1.0080 c          1 IDH       0.727500
      6 O4           2.1450     0.0560     0.4460 o          1 IDH      -0.567500
      7 C5          -0.2270     0.5070     0.3530 c6         1 IDH      -0.014800
      8 C6          -1.4010    -0.1900     1.0140 c6         1 IDH       0.120000
      9 I5          -0.1770     0.0950    -1.7560 i          1 IDH      -0.189900
     10 H1          -2.1960     0.1440     2.9550 hn         1 IDH       0.341500
     11 H3           1.8080    -0.3370     2.8530 hn         1 IDH       0.343500
     12 H5          -0.3340     1.5920     0.4480 h1         1 IDH       0.111700
     13 H6C1        -2.3400     0.2000     0.6310 h1         1 IDH       0.064700
     14 H6C2        -1.3740    -1.2660     0.8150 h1         1 IDH       0.064700
@<TRIPOS>BOND
     1     1     2 1   
     2     1     8 1   
     3     1    10 1   
     4     2     3 2   
     5     2     4 1   
     6     4     5 1   
     7     4    11 1   
     8     5     6 2   
     9     5     7 1   
    10     7     8 1   
    11     7     9 1   
    12     7    12 1   
    13     8    13 1   
    14     8    14 1   
@<TRIPOS>SUBSTRUCTURE
     1 IDH         1 TEMP              0 ****  ****    0 ROOT
