@<TRIPOS>MOLECULE
IDH
   14    14     1     0     0
SMALL
No Charge or Current Charge


@<TRIPOS>ATOM
      1 N1          -1.3170    -0.1330     2.4740 ns         1 IDH      -0.517900
      2 C2          -0.1350    -0.1900     3.1550 c          1 IDH       0.624000
      3 O2          -0.0890    -0.3780     4.3540 o          1 IDH      -0.554000
      4 N3           0.9820    -0.0320     2.4060 ns         1 IDH      -0.486500
      5 C4           1.0960     0.2590     1.0800 c          1 IDH       0.585000
      6 O4           2.1980     0.3960     0.5700 o          1 IDH      -0.492000
      7 C5          -0.2010     0.4380     0.2790 c6         1 IDH      -0.020700
      8 C6          -1.4880     0.0170     1.0210 c6         1 IDH       0.120000
      9 I5          -0.0990    -0.5730    -1.7680 i          1 IDH      -0.184000
     10 H1          -2.1480    -0.2480     3.0440 hn         1 IDH       0.341500
     11 H3           1.8520    -0.1090     2.9090 hn         1 IDH       0.343500
     12 H5          -0.2570     1.5070     0.0390 h1         1 IDH       0.111700
     13 H6C1        -2.2890     0.7430     0.8220 h1         1 IDH       0.064700
     14 H6C2        -1.8240    -0.9540     0.6310 h1         1 IDH       0.064700
@<TRIPOS>BOND
     1     1     2 1   
     2     1     8 1   
     3     1    10 1   
     4     2     3 2   
     5     2     4 1   
     6     4     5 1   
     7     4    11 1   
     8     5     6 2   
     9     5     7 1   
    10     7     8 1   
    11     7     9 1   
    12     7    12 1   
    13     8    13 1   
    14     8    14 1   
@<TRIPOS>SUBSTRUCTURE
     1 IDH         1 TEMP              0 ****  ****    0 ROOT
