@<TRIPOS>MOLECULE
IDI
   21    22     1     0     0
SMALL
bcc


@<TRIPOS>ATOM
      1 I           -0.1890    -0.0040    -2.3910 i          1 IDI      -0.182900
      2 C4           1.8530    -0.0570     1.4390 ca         1 IDI      -0.132000
      3 C5           1.5820    -0.0520     0.0800 ca         1 IDI      -0.097000
      4 C6           0.2570    -0.0090    -0.3320 ca         1 IDI       0.058900
      5 C7          -0.7750     0.0260     0.5890 ca         1 IDI      -0.096000
      6 C8          -0.4910     0.0170     1.9530 ca         1 IDI      -0.077300
      7 C9           0.8330    -0.0210     2.3880 ca         1 IDI      -0.046300
      8 C1          -1.6270     0.0840     2.9420 c6         1 IDI       0.202100
      9 C2          -0.0380     0.3870     4.6980 c6         1 IDI       0.157800
     10 C3           1.1580    -0.0320     3.8580 c6         1 IDI      -0.031100
     11 N1          -1.2010    -0.3570     4.2520 n7         1 IDI      -0.801200
     12 HC51         2.3940    -0.0790    -0.6330 ha         1 IDI       0.145000
     13 HC71        -1.8080     0.0560     0.2630 ha         1 IDI       0.142000
     14 HC11        -2.4480    -0.5490     2.5970 h1         1 IDI       0.041200
     15 HC12        -2.0140     1.1170     2.9450 h1         1 IDI       0.041200
     16 HC21         0.1490     0.1630     5.7490 h1         1 IDI       0.034200
     17 HC22        -0.1790     1.4770     4.6200 h1         1 IDI       0.034200
     18 HC31         1.4700    -1.0390     4.1480 hc         1 IDI       0.057700
     19 HC32         2.0060     0.6260     4.0580 hc         1 IDI       0.057700
     20 HN11        -1.9620    -0.2350     4.9060 hn         1 IDI       0.359800
     21 HC41         2.8850    -0.0850     1.7670 ha         1 IDI       0.133000
@<TRIPOS>BOND
     1     1     4 1   
     2     2     3 ar  
     3     2     7 ar  
     4     2    21 1   
     5     3     4 ar  
     6     3    12 1   
     7     4     5 ar  
     8     5     6 ar  
     9     5    13 1   
    10     6     7 ar  
    11     6     8 1   
    12     7    10 1   
    13     8    11 1   
    14     8    14 1   
    15     8    15 1   
    16     9    10 1   
    17     9    11 1   
    18     9    16 1   
    19     9    17 1   
    20    10    18 1   
    21    10    19 1   
    22    11    20 1   
@<TRIPOS>SUBSTRUCTURE
     1 IDI         1 TEMP              0 ****  ****    0 ROOT
