@<TRIPOS>MOLECULE
IDI
   21    22     1     0     0
SMALL
No Charge or Current Charge


@<TRIPOS>ATOM
      1 I           -0.1840    -0.0380    -2.5000 i          1 IDI      -0.320000
      2 C4           1.8890    -0.0460     1.4270 ca         1 IDI      -0.114000
      3 C5           1.5980    -0.0560     0.0520 ca         1 IDI      -0.079000
      4 C6           0.2640    -0.0250    -0.3810 ca         1 IDI       0.196000
      5 C7          -0.7820     0.0150     0.5540 ca         1 IDI      -0.078000
      6 C8          -0.5010     0.0230     1.9350 ca         1 IDI      -0.077300
      7 C9           0.8450    -0.0030     2.3730 ca         1 IDI      -0.046300
      8 C1          -1.6580     0.0870     2.9420 c6         1 IDI       0.202100
      9 C2          -0.0330     0.3520     4.7600 c6         1 IDI       0.157800
     10 C3           1.1760    -0.0170     3.8690 c6         1 IDI      -0.031100
     11 N1          -1.2540    -0.3430     4.3010 n7         1 IDI      -0.856400
     12 HC51         2.4030    -0.0890    -0.6770 ha         1 IDI       0.127000
     13 HC71        -1.8110     0.0420     0.2050 ha         1 IDI       0.124000
     14 HC11        -2.4880    -0.5450     2.5920 h1         1 IDI       0.041200
     15 HC12        -2.0280     1.1230     2.9820 h1         1 IDI       0.041200
     16 HC21         0.1830     0.0790     5.8040 h1         1 IDI       0.034200
     17 HC22        -0.1970     1.4400     4.7270 h1         1 IDI       0.034200
     18 HC31         1.5260    -1.0220     4.1420 hc         1 IDI       0.057700
     19 HC32         2.0070     0.6680     4.0820 hc         1 IDI       0.057700
     20 HN11        -2.0250    -0.1360     4.9500 hn         1 IDI       0.415000
     21 HC41         2.9240    -0.0750     1.7590 ha         1 IDI       0.115000
@<TRIPOS>BOND
     1     1     4 1   
     2     2     3 ar  
     3     2     7 ar  
     4     2    21 1   
     5     3     4 ar  
     6     3    12 1   
     7     4     5 ar  
     8     5     6 ar  
     9     5    13 1   
    10     6     7 ar  
    11     6     8 1   
    12     7    10 1   
    13     8    11 1   
    14     8    14 1   
    15     8    15 1   
    16     9    10 1   
    17     9    11 1   
    18     9    16 1   
    19     9    17 1   
    20    10    18 1   
    21    10    19 1   
    22    11    20 1   
@<TRIPOS>SUBSTRUCTURE
     1 IDI         1 TEMP              0 ****  ****    0 ROOT
