@<TRIPOS>MOLECULE
IDJ
   22    22     1     0     0
SMALL
No Charge or Current Charge


@<TRIPOS>ATOM
      1 O6B         -2.4260     0.9120    -0.7880 o          1 IDJ      -0.724500
      2 C6          -2.2120     0.1010     0.1080 c          1 IDJ       0.729000
      3 O6A         -3.0590    -0.2030     0.9370 o          1 IDJ      -0.724500
      4 C5          -0.7030    -0.1340     0.4830 c6         1 IDJ      -0.002500
      5 N5           0.0040     1.0710     1.0790 n7         1 IDJ      -0.829400
      6 C4           0.0560    -0.6850    -0.7650 c6         1 IDJ       0.220300
      7 O4          -0.0210     0.3100    -1.8100 oh         1 IDJ      -0.759000
      8 C3           1.5470    -1.0250    -0.4010 c6         1 IDJ       0.161300
      9 O3           1.6180    -2.1450     0.5120 oh         1 IDJ      -0.663000
     10 C2           2.2470     0.2420     0.2030 c6         1 IDJ       0.153300
     11 O2           2.3490     1.2580    -0.8060 oh         1 IDJ      -0.682000
     12 C1           1.4240     0.7810     1.4240 c6         1 IDJ       0.134800
     13 H2          -0.7070    -0.9270     1.2450 h1         1 IDJ       0.019700
     14 H3          -0.4940     1.3720     1.9280 hn         1 IDJ       0.422000
     15 H5          -0.4430    -1.6060    -1.1000 h1         1 IDJ       0.024700
     16 H6          -0.9050     0.7500    -1.6320 ho         1 IDJ       0.568000
     17 H7           2.0690    -1.2960    -1.3310 h1         1 IDJ       0.043700
     18 H8           2.5700    -2.3500     0.6340 ho         1 IDJ       0.420000
     19 H9           3.2560    -0.0290     0.5460 h1         1 IDJ      -0.015300
     20 H10          1.4670     1.1950    -1.2610 ho         1 IDJ       0.483000
     21 H11          1.8940     1.6960     1.8120 h1         1 IDJ       0.009700
     22 H12          1.4480     0.0380     2.2350 h1         1 IDJ       0.009700
@<TRIPOS>BOND
     1     1     2 1   
     2     2     3 1   
     3     2     4 1   
     4     4     5 1   
     5     4     6 1   
     6     4    13 1   
     7     5    12 1   
     8     5    14 1   
     9     6     7 1   
    10     6     8 1   
    11     6    15 1   
    12     7    16 1   
    13     8     9 1   
    14     8    10 1   
    15     8    17 1   
    16     9    18 1   
    17    10    11 1   
    18    10    12 1   
    19    10    19 1   
    20    11    20 1   
    21    12    21 1   
    22    12    22 1   
@<TRIPOS>SUBSTRUCTURE
     1 IDJ         1 TEMP              0 ****  ****    0 ROOT
