@<TRIPOS>MOLECULE
IDJ
   22    22     1     0     0
SMALL
bcc


@<TRIPOS>ATOM
      1 O6B         -2.5980     0.1190    -1.0180 o          1 IDJ      -0.829800
      2 C6          -2.2010     0.1330     0.1750 c          1 IDJ       0.939600
      3 O6A         -2.8890     0.4220     1.1660 o          1 IDJ      -0.829800
      4 C5          -0.7210    -0.2170     0.4550 c6         1 IDJ      -0.002500
      5 N5          -0.0750     0.9750     0.9840 n7         1 IDJ      -0.774200
      6 C4           0.0270    -0.7320    -0.7780 c6         1 IDJ       0.197100
      7 O4          -0.1350     0.1040    -1.8930 oh         1 IDJ      -0.636800
      8 C3           1.5210    -0.9040    -0.4980 c6         1 IDJ       0.138100
      9 O3           1.6460    -2.0580     0.3080 oh         1 IDJ      -0.600800
     10 C2           2.1430     0.3010     0.2160 c6         1 IDJ       0.130100
     11 O2           2.3060     1.3330    -0.7290 oh         1 IDJ      -0.559800
     12 C1           1.2840     0.7120     1.4040 c6         1 IDJ       0.134800
     13 H2          -0.7190    -1.0370     1.1960 h1         1 IDJ       0.019700
     14 H3          -0.6130     1.3110     1.7720 hn         1 IDJ       0.366800
     15 H5          -0.3680    -1.7400    -0.9900 h1         1 IDJ       0.024700
     16 H6          -1.1050     0.2460    -1.9010 ho         1 IDJ       0.469000
     17 H7           2.0360    -1.0470    -1.4600 h1         1 IDJ       0.043700
     18 H8           2.5800    -2.2120     0.4800 ho         1 IDJ       0.381000
     19 H9           3.1240    -0.0140     0.6090 h1         1 IDJ      -0.015300
     20 H10          2.6790     2.0940    -0.2730 ho         1 IDJ       0.384000
     21 H11          1.6990     1.6160     1.8620 h1         1 IDJ       0.009700
     22 H12          1.3560    -0.0820     2.1650 h1         1 IDJ       0.009700
@<TRIPOS>BOND
     1     1     2 1   
     2     2     3 1   
     3     2     4 1   
     4     4     5 1   
     5     4     6 1   
     6     4    13 1   
     7     5    12 1   
     8     5    14 1   
     9     6     7 1   
    10     6     8 1   
    11     6    15 1   
    12     7    16 1   
    13     8     9 1   
    14     8    10 1   
    15     8    17 1   
    16     9    18 1   
    17    10    11 1   
    18    10    12 1   
    19    10    19 1   
    20    11    20 1   
    21    12    21 1   
    22    12    22 1   
@<TRIPOS>SUBSTRUCTURE
     1 IDJ         1 TEMP              0 ****  ****    0 ROOT
