@<TRIPOS>MOLECULE
IDK
   51    55     1     0     0
SMALL
No Charge or Current Charge


@<TRIPOS>ATOM
      1 C8           0.6790    -1.2310    -0.3180 cp         1 IDK      -0.022000
      2 C5           3.4750    -1.5860    -0.6470 ca         1 IDK      -0.086000
      3 C6           2.5730    -2.3320    -1.4240 ca         1 IDK      -0.097000
      4 N1          -5.8170     0.1890     0.5780 ns         1 IDK      -0.402400
      5 C2           6.8740     1.8060    -1.0880 cx         1 IDK      -0.117700
      6 N3          -4.1220    -2.8050    -0.1700 na         1 IDK      -0.063400
      7 C4           2.9980    -0.6540     0.2970 ca         1 IDK       0.235000
      8 O2           6.2060    -0.6820     0.8080 o          1 IDK      -0.521000
      9 S            5.4290     0.5590     0.8540 s6         1 IDK       1.170100
     10 O1           5.6940     1.5620     1.8870 o          1 IDK      -0.521000
     11 C3           5.4470     1.3570    -0.7690 c3         1 IDK      -0.299400
     12 C1           7.3730     3.1680    -0.6650 cx         1 IDK      -0.120400
     13 C            7.1100     2.8790    -2.1240 cx         1 IDK      -0.120400
     14 N            3.8450     0.1130     1.1000 nu         1 IDK      -0.870100
     15 C9           1.6100    -0.4910     0.4540 ca         1 IDK      -0.132000
     16 C7           1.1900    -2.1550    -1.2620 ca         1 IDK      -0.099000
     17 C10         -0.7970    -1.0430    -0.1410 cp         1 IDK       0.004000
     18 C20         -1.6950    -2.1410    -0.2730 ca         1 IDK      -0.121000
     19 C19         -3.0650    -1.9170    -0.0990 ca         1 IDK      -0.016200
     20 C13         -3.5600    -0.6870     0.1910 ca         1 IDK      -0.258900
     21 C12         -2.7310     0.4340     0.3330 ca         1 IDK      -0.032000
     22 C11         -1.3440     0.2410     0.1640 ca         1 IDK      -0.147000
     23 N2          -5.3380    -2.1380     0.0770 nc         1 IDK      -0.507100
     24 C14         -4.9870    -0.8630     0.2930 cd         1 IDK       0.429500
     25 C15         -7.1820     0.1940     0.7060 c          1 IDK       0.639100
     26 O           -7.8980    -0.7910     0.5890 o          1 IDK      -0.550100
     27 C16         -7.7420     1.5590     1.0250 cx         1 IDK      -0.251700
     28 C18         -8.9400     2.0630     0.2420 cx         1 IDK      -0.094900
     29 C17         -7.5790     2.6740     0.0090 cx         1 IDK      -0.094900
     30 H1           4.5380    -1.7480    -0.7840 ha         1 IDK       0.150000
     31 H2           2.9480    -3.0470    -2.1530 ha         1 IDK       0.124000
     32 H3           7.5950     0.9880    -1.0740 hc         1 IDK       0.099700
     33 H4          -4.0720    -3.8030    -0.3700 hn         1 IDK       0.383000
     34 H5           4.7530     2.2030    -0.7180 h1         1 IDK       0.093700
     35 H6           5.0910     0.6200    -1.4960 h1         1 IDK       0.093700
     36 H7           6.6820     3.8290    -0.1480 hc         1 IDK       0.077700
     37 H8           8.4080     3.2500    -0.3420 hc         1 IDK       0.077700
     38 H9           7.9690     2.7690    -2.7820 hc         1 IDK       0.077700
     39 H10          6.2430     3.3470    -2.5840 hc         1 IDK       0.077700
     40 H11          3.4350     0.8430     1.6670 hn         1 IDK       0.488000
     41 H12          1.2450     0.2120     1.1960 ha         1 IDK       0.115000
     42 H13          0.5100    -2.7330    -1.8830 ha         1 IDK       0.121000
     43 H14         -1.3280    -3.1410    -0.4920 ha         1 IDK       0.125000
     44 H15         -3.1340     1.4180     0.5620 ha         1 IDK       0.113000
     45 H16         -0.6850     1.1010     0.2560 ha         1 IDK       0.113000
     46 H18         -7.6940     1.8370     2.0750 hc         1 IDK       0.083700
     47 H19         -9.3490     1.4280    -0.5410 hc         1 IDK       0.083450
     48 H20         -9.6790     2.6600     0.7720 hc         1 IDK       0.083450
     49 H21         -7.4060     3.6820     0.3820 hc         1 IDK       0.083450
     50 H22         -7.0840     2.4510    -0.9340 hc         1 IDK       0.083450
     51 H23         -5.3930     1.0930     0.7150 hn         1 IDK       0.323500
@<TRIPOS>BOND
     1     1    15 ar  
     2     1    16 ar  
     3     1    17 1   
     4     2     3 ar  
     5     2     7 ar  
     6     2    30 1   
     7     3    16 ar  
     8     3    31 1   
     9     4    24 1   
    10     4    25 1   
    11     4    51 1   
    12     5    11 1   
    13     5    12 1   
    14     5    13 1   
    15     5    32 1   
    16     6    19 1   
    17     6    23 1   
    18     6    33 1   
    19     7    14 1   
    20     7    15 ar  
    21     8     9 2   
    22     9    10 2   
    23     9    11 1   
    24     9    14 1   
    25    11    34 1   
    26    11    35 1   
    27    12    13 1   
    28    12    36 1   
    29    12    37 1   
    30    13    38 1   
    31    13    39 1   
    32    14    40 1   
    33    15    41 1   
    34    16    42 1   
    35    17    18 ar  
    36    17    22 ar  
    37    18    19 ar  
    38    18    43 1   
    39    19    20 ar  
    40    20    21 ar  
    41    20    24 1   
    42    21    22 ar  
    43    21    44 1   
    44    22    45 1   
    45    23    24 2   
    46    25    26 2   
    47    25    27 1   
    48    27    28 1   
    49    27    29 1   
    50    27    46 1   
    51    28    29 1   
    52    28    47 1   
    53    28    48 1   
    54    29    49 1   
    55    29    50 1   
@<TRIPOS>SUBSTRUCTURE
     1 IDK         1 TEMP              0 ****  ****    0 ROOT
