@<TRIPOS>MOLECULE
IDK
   51    55     1     0     0
SMALL
abcg2


@<TRIPOS>ATOM
      1 C8           1.0500    -1.7220    -0.1900 cp         1 IDK      -0.022000
      2 C5           3.7430    -2.5020    -0.2620 ca         1 IDK      -0.086000
      3 C6           2.7910    -3.1770    -1.0110 ca         1 IDK      -0.097000
      4 N1          -5.1970     0.7170     0.1120 ns         1 IDK      -0.402400
      5 C2           5.5960     2.2620    -1.1690 cx         1 IDK      -0.117700
      6 N3          -3.8680    -2.4770    -0.0970 na         1 IDK      -0.063400
      7 C4           3.3470    -1.4170     0.5130 ca         1 IDK       0.235000
      8 O2           6.2360    -0.6430    -0.2930 o          1 IDK      -0.521000
      9 S            5.4730     0.2110     0.6040 s6         1 IDK       1.170100
     10 O1           6.1510     0.8680     1.7090 o          1 IDK      -0.521000
     11 C3           4.6140     1.4310    -0.3940 c3         1 IDK      -0.299400
     12 C1           6.3230     3.3860    -0.4950 cx         1 IDK      -0.120400
     13 C            5.2450     3.6850    -1.4880 cx         1 IDK      -0.120400
     14 N            4.2880    -0.7230     1.3140 nu         1 IDK      -0.870100
     15 C9           2.0120    -1.0310     0.5420 ca         1 IDK      -0.132000
     16 C7           1.4580    -2.7980    -0.9790 ca         1 IDK      -0.099000
     17 C10         -0.3680    -1.3090    -0.1370 cp         1 IDK       0.004000
     18 C20         -1.3690    -2.2630    -0.1580 ca         1 IDK      -0.121000
     19 C19         -2.6920    -1.8150    -0.1000 ca         1 IDK      -0.016200
     20 C13         -3.0150    -0.4520    -0.0210 ca         1 IDK      -0.258900
     21 C12         -1.9950     0.5050    -0.0060 ca         1 IDK      -0.032000
     22 C11         -0.6930     0.0700    -0.0620 ca         1 IDK      -0.147000
     23 N2          -4.9250    -1.6520    -0.0220 nc         1 IDK      -0.507100
     24 C14         -4.4400    -0.4390     0.0220 cd         1 IDK       0.429500
     25 C15         -6.5490     0.8370    -0.0110 c          1 IDK       0.639100
     26 O           -7.2850    -0.1080    -0.2250 o          1 IDK      -0.550100
     27 C16         -7.0400     2.2300     0.1460 cx         1 IDK      -0.251700
     28 C18         -8.3650     2.4300     0.8390 cx         1 IDK      -0.094900
     29 C17         -8.2680     2.6360    -0.6260 cx         1 IDK      -0.094900
     30 H1           4.7740    -2.8260    -0.2680 ha         1 IDK       0.150000
     31 H2           3.0930    -4.0170    -1.6230 ha         1 IDK       0.124000
     32 H3           6.1370     1.7200    -1.9360 hc         1 IDK       0.099700
     33 H4          -4.0220    -3.4700    -0.1460 hn         1 IDK       0.383000
     34 H5           4.0130     2.0300     0.2930 h1         1 IDK       0.093700
     35 H6           3.9400     0.8840    -1.0560 h1         1 IDK       0.093700
     36 H7           6.1120     3.5690     0.5500 hc         1 IDK       0.077700
     37 H8           7.3520     3.5630    -0.7810 hc         1 IDK       0.077700
     38 H9           5.5290     4.0610    -2.4620 hc         1 IDK       0.077700
     39 H10          4.3040     4.0720    -1.1180 hc         1 IDK       0.077700
     40 H11          3.8820    -0.2480     2.1140 hn         1 IDK       0.488000
     41 H12          1.7230    -0.1910     1.1640 ha         1 IDK       0.115000
     42 H13          0.7370    -3.3330    -1.5830 ha         1 IDK       0.121000
     43 H14         -1.1410    -3.3200    -0.1950 ha         1 IDK       0.125000
     44 H15         -2.2110     1.5650     0.0410 ha         1 IDK       0.113000
     45 H16          0.1040     0.8010    -0.0740 ha         1 IDK       0.113000
     46 H18         -6.2910     2.9970     0.3030 hc         1 IDK       0.083700
     47 H19         -8.8720     1.5450     1.1990 hc         1 IDK       0.083450
     48 H20         -8.4480     3.2960     1.4820 hc         1 IDK       0.083450
     49 H21         -8.2860     3.6470    -1.0110 hc         1 IDK       0.083450
     50 H22         -8.7130     1.8940    -1.2770 hc         1 IDK       0.083450
     51 H23         -4.6740     1.5620     0.2780 hn         1 IDK       0.323500
@<TRIPOS>BOND
     1     1    15 ar  
     2     1    16 ar  
     3     1    17 1   
     4     2     3 ar  
     5     2     7 ar  
     6     2    30 1   
     7     3    16 ar  
     8     3    31 1   
     9     4    24 1   
    10     4    25 1   
    11     4    51 1   
    12     5    11 1   
    13     5    12 1   
    14     5    13 1   
    15     5    32 1   
    16     6    19 1   
    17     6    23 1   
    18     6    33 1   
    19     7    14 1   
    20     7    15 ar  
    21     8     9 2   
    22     9    10 2   
    23     9    11 1   
    24     9    14 1   
    25    11    34 1   
    26    11    35 1   
    27    12    13 1   
    28    12    36 1   
    29    12    37 1   
    30    13    38 1   
    31    13    39 1   
    32    14    40 1   
    33    15    41 1   
    34    16    42 1   
    35    17    18 ar  
    36    17    22 ar  
    37    18    19 ar  
    38    18    43 1   
    39    19    20 ar  
    40    20    21 ar  
    41    20    24 1   
    42    21    22 ar  
    43    21    44 1   
    44    22    45 1   
    45    23    24 2   
    46    25    26 2   
    47    25    27 1   
    48    27    28 1   
    49    27    29 1   
    50    27    46 1   
    51    28    29 1   
    52    28    47 1   
    53    28    48 1   
    54    29    49 1   
    55    29    50 1   
@<TRIPOS>SUBSTRUCTURE
     1 IDK         1 TEMP              0 ****  ****    0 ROOT
