@<TRIPOS>MOLECULE
IDL
   20    21     1     0     0
SMALL
No Charge or Current Charge


@<TRIPOS>ATOM
      1 C            7.3720    17.9610    18.7150 cc         1 IDL      -0.115000
      2 N1           7.6490    18.2580    19.9710 nd         1 IDL      -0.310600
      3 C2           8.3680    18.3540    16.5170 cc         1 IDL      -0.086000
      4 N2           8.3440    18.4790    17.9120 na         1 IDL       0.103100
      5 O2          12.2240    19.7870    19.7550 o          1 IDL      -0.725000
      6 C3           7.2940    17.6380    15.9830 cd         1 IDL      -0.182000
      7 O3          11.0990    21.6130    19.5720 o          1 IDL      -0.725000
      8 C4           6.2400    17.0710    16.7940 cd         1 IDL      -0.131000
      9 C5           6.2850    17.2350    18.1590 cc         1 IDL      -0.074000
     10 C7           9.3010    19.1420    18.6350 cc         1 IDL      -0.085300
     11 C8           8.8380    18.9870    19.9310 cd         1 IDL      -0.026400
     12 C17         10.5290    19.8450    18.0960 c3         1 IDL      -0.157200
     13 C18         11.3890    20.4860    19.2000 c          1 IDL       0.718000
     14 H2           9.1810    18.7990    15.9600 h4         1 IDL       0.143000
     15 H3           7.2500    17.5030    14.9070 ha         1 IDL       0.110000
     16 H4           5.4250    16.5220    16.3340 ha         1 IDL       0.101000
     17 H5           5.5160    16.8270    18.8070 ha         1 IDL       0.123000
     18 H8           9.2990    19.3630    20.8420 h4         1 IDL       0.249000
     19 H17         11.1160    19.0750    17.5800 hc         1 IDL       0.034700
     20 H17A        10.1590    20.6280    17.4240 hc         1 IDL       0.034700
@<TRIPOS>BOND
     1     1     2 2   
     2     1     4 1   
     3     1     9 1   
     4     2    11 1   
     5     3     4 1   
     6     3     6 2   
     7     3    14 1   
     8     4    10 1   
     9     5    13 1   
    10     6     8 1   
    11     6    15 1   
    12     7    13 1   
    13     8     9 2   
    14     8    16 1   
    15     9    17 1   
    16    10    11 2   
    17    10    12 1   
    18    11    18 1   
    19    12    13 1   
    20    12    19 1   
    21    12    20 1   
@<TRIPOS>SUBSTRUCTURE
     1 IDL         1 TEMP              0 ****  ****    0 ROOT
