@<TRIPOS>MOLECULE
IDL
   20    21     1     0     0
SMALL
abcg2


@<TRIPOS>ATOM
      1 C            7.3460    17.9910    18.7290 cc         1 IDL      -0.115000
      2 N1           7.5950    18.3050    19.9980 nd         1 IDL      -0.310600
      3 C2           8.3490    18.3040    16.5410 cc         1 IDL      -0.086000
      4 N2           8.3590    18.4940    17.8980 na         1 IDL       0.103100
      5 O2          12.5950    20.0890    19.2470 o          1 IDL      -0.725000
      6 C3           7.3180    17.6200    15.9740 cd         1 IDL      -0.182000
      7 O3          10.8640    21.3540    19.9060 o          1 IDL      -0.725000
      8 C4           6.2700    17.1030    16.7790 cd         1 IDL      -0.131000
      9 C5           6.2840    17.2830    18.1370 cc         1 IDL      -0.074000
     10 C7           9.2710    19.1520    18.7030 cc         1 IDL      -0.085300
     11 C8           8.7690    19.0110    19.9770 cd         1 IDL      -0.026400
     12 C17         10.5000    19.7780    18.1410 c3         1 IDL      -0.157200
     13 C18         11.3980    20.4630    19.2000 c          1 IDL       0.718000
     14 H2           9.1770    18.7190    15.9860 h4         1 IDL       0.143000
     15 H3           7.3120    17.4740    14.9030 ha         1 IDL       0.110000
     16 H4           5.4550    16.5650    16.3110 ha         1 IDL       0.101000
     17 H5           5.5010    16.8970    18.7740 ha         1 IDL       0.123000
     18 H8           9.2060    19.4060    20.8790 h4         1 IDL       0.249000
     19 H17         11.0870    19.0240    17.6100 hc         1 IDL       0.034700
     20 H17A        10.2220    20.5410    17.4030 hc         1 IDL       0.034700
@<TRIPOS>BOND
     1     1     2 2   
     2     1     4 1   
     3     1     9 1   
     4     2    11 1   
     5     3     4 1   
     6     3     6 2   
     7     3    14 1   
     8     4    10 1   
     9     5    13 1   
    10     6     8 1   
    11     6    15 1   
    12     7    13 1   
    13     8     9 2   
    14     8    16 1   
    15     9    17 1   
    16    10    11 2   
    17    10    12 1   
    18    11    18 1   
    19    12    13 1   
    20    12    19 1   
    21    12    20 1   
@<TRIPOS>SUBSTRUCTURE
     1 IDL         1 TEMP              0 ****  ****    0 ROOT
