@<TRIPOS>MOLECULE
IDM
   18    19     1     0     0
SMALL
No Charge or Current Charge


@<TRIPOS>ATOM
      1 N1           1.1420     0.3360    -1.5120 nu         1 IDM      -0.912200
      2 C2           0.0480    -0.1260    -2.4380 c5         1 IDM       0.181800
      3 C3          -1.2700     0.1420    -1.6070 c5         1 IDM      -0.033100
      4 C4A         -0.7140     0.0830    -0.2110 ca         1 IDM      -0.146300
      5 C4          -1.4140    -0.0720     0.9960 ca         1 IDM      -0.064000
      6 C5          -0.6790    -0.1240     2.1980 ca         1 IDM      -0.150000
      7 C6           0.7310    -0.0230     2.1780 ca         1 IDM      -0.078000
      8 C7           1.4100     0.1330     0.9530 ca         1 IDM      -0.155000
      9 C7A          0.6560     0.1900    -0.2260 ca         1 IDM       0.264000
     10 HN1          2.1160     0.0600    -1.6570 hn         1 IDM       0.452000
     11 H21          0.1430    -1.2020    -2.6430 h1         1 IDM       0.041200
     12 H22          0.0480     0.3970    -3.4040 h1         1 IDM       0.041200
     13 H31         -1.6920     1.1290    -1.8290 hc         1 IDM       0.055700
     14 H32         -2.0440    -0.6090    -1.8030 hc         1 IDM       0.055700
     15 H4          -2.4990    -0.1560     1.0040 ha         1 IDM       0.111000
     16 H5          -1.1990    -0.2450     3.1460 ha         1 IDM       0.112000
     17 H6           1.2920    -0.0660     3.1090 ha         1 IDM       0.109000
     18 H7           2.4930     0.2130     0.9230 ha         1 IDM       0.115000
@<TRIPOS>BOND
     1     1     2 1   
     2     1     9 1   
     3     1    10 1   
     4     2     3 1   
     5     2    11 1   
     6     2    12 1   
     7     3     4 1   
     8     3    13 1   
     9     3    14 1   
    10     4     5 ar  
    11     4     9 ar  
    12     5     6 ar  
    13     5    15 1   
    14     6     7 ar  
    15     6    16 1   
    16     7     8 ar  
    17     7    17 1   
    18     8     9 ar  
    19     8    18 1   
@<TRIPOS>SUBSTRUCTURE
     1 IDM         1 TEMP              0 ****  ****    0 ROOT
