@<TRIPOS>MOLECULE
IDM
   18    19     1     0     0
SMALL
abcg2


@<TRIPOS>ATOM
      1 N1           1.1310     0.2940    -1.5100 nu         1 IDM      -0.912200
      2 C2           0.0550    -0.0570    -2.4390 c5         1 IDM       0.181800
      3 C3          -1.2370     0.0810    -1.6040 c5         1 IDM      -0.033100
      4 C4A         -0.7260     0.0410    -0.1890 ca         1 IDM      -0.146300
      5 C4          -1.3990    -0.0550     1.0110 ca         1 IDM      -0.064000
      6 C5          -0.6730    -0.0720     2.2050 ca         1 IDM      -0.150000
      7 C6           0.7100     0.0040     2.1720 ca         1 IDM      -0.078000
      8 C7           1.4000     0.1110     0.9660 ca         1 IDM      -0.155000
      9 C7A          0.6670     0.1410    -0.2130 ca         1 IDM       0.264000
     10 HN1          2.0330    -0.1160    -1.7030 hn         1 IDM       0.452000
     11 H21          0.1590    -1.0820    -2.8110 h1         1 IDM       0.041200
     12 H22          0.0630     0.6070    -3.3030 h1         1 IDM       0.041200
     13 H31         -1.7620     1.0160    -1.8220 hc         1 IDM       0.055700
     14 H32         -1.9350    -0.7290    -1.8180 hc         1 IDM       0.055700
     15 H4          -2.4800    -0.1300     1.0350 ha         1 IDM       0.111000
     16 H5          -1.1920    -0.1550     3.1510 ha         1 IDM       0.112000
     17 H6           1.2720    -0.0160     3.0960 ha         1 IDM       0.109000
     18 H7           2.4820     0.1760     0.9540 ha         1 IDM       0.115000
@<TRIPOS>BOND
     1     1     2 1   
     2     1     9 1   
     3     1    10 1   
     4     2     3 1   
     5     2    11 1   
     6     2    12 1   
     7     3     4 1   
     8     3    13 1   
     9     3    14 1   
    10     4     5 ar  
    11     4     9 ar  
    12     5     6 ar  
    13     5    15 1   
    14     6     7 ar  
    15     6    16 1   
    16     7     8 ar  
    17     7    17 1   
    18     8     9 ar  
    19     8    18 1   
@<TRIPOS>SUBSTRUCTURE
     1 IDM         1 TEMP              0 ****  ****    0 ROOT
