@<TRIPOS>MOLECULE
IDN
   50    53     1     0     0
SMALL
abcg2


@<TRIPOS>ATOM
      1 C01         -0.6550     0.1980    -4.1900 ca         1 IDN       0.495900
      2 C02          0.7080     0.3380    -4.4670 ca         1 IDN      -0.175300
      3 C03          1.5700     0.2490    -3.3970 ca         1 IDN      -0.024000
      4 C04          1.0830     0.0470    -2.1000 ca         1 IDN      -0.153800
      5 C05         -0.3010    -0.0390    -1.9600 ca         1 IDN       0.394900
      6 N06         -1.1490     0.0270    -2.9740 nb         1 IDN      -0.717000
      7 C07          2.0190    -0.0520    -0.9890 ce         1 IDN      -0.080200
      8 C08          1.7250    -0.3350     0.2850 cf         1 IDN      -0.292200
      9 C09          2.8010    -0.3720     1.3060 c          1 IDN       0.602300
     10 O10          3.9450    -0.0120     1.0420 o          1 IDN      -0.613100
     11 N11          2.4660    -0.7930     2.5460 n          1 IDN      -0.410800
     12 C12          3.4540    -0.7160     3.6060 c3         1 IDN       0.089300
     13 C13          1.1870    -1.3870     2.8870 c3         1 IDN       0.185200
     14 C14          0.1790    -0.3800     3.3420 cc         1 IDN      -0.184400
     15 C15          0.2880     0.9810     3.2910 cd         1 IDN      -0.134100
     16 N16         -0.8420     1.5710     3.7890 na         1 IDN      -0.087700
     17 C17         -1.7120     0.5910     4.1710 ca         1 IDN      -0.046200
     18 C18         -1.1050    -0.6570     3.9080 ca         1 IDN      -0.090800
     19 N19         -1.5700     0.2580    -5.2270 ns         1 IDN      -0.322900
     20 C20         -1.0850     2.9890     3.8850 c3         1 IDN       0.064900
     21 C21         -3.0590    -1.7360     4.7770 ca         1 IDN      -0.136000
     22 C22         -3.6450    -0.4850     5.0300 ca         1 IDN      -0.093000
     23 C23         -2.9850     0.6930     4.7310 ca         1 IDN      -0.124000
     24 C24         -1.7980    -1.8320     4.2200 ca         1 IDN      -0.067000
     25 C25          1.1180     0.6110    -5.8800 c6         1 IDN      -0.016100
     26 C26          0.1950    -0.1180    -6.8480 c6         1 IDN      -0.163400
     27 C27         -1.2640     0.1170    -6.5520 c          1 IDN       0.575000
     28 O28         -2.1310     0.1400    -7.4030 o          1 IDN      -0.525000
     29 H03          2.6380     0.3430    -3.5610 ha         1 IDN       0.125000
     30 H05         -0.7530    -0.1680    -0.9830 h4         1 IDN       0.027100
     31 H07          3.0590     0.1200    -1.2460 ha         1 IDN       0.197000
     32 H08          0.7020    -0.5160     0.5850 ha         1 IDN       0.190000
     33 H121         4.0440     0.1940     3.5260 h1         1 IDN       0.043033
     34 H122         2.9390    -0.7020     4.5640 h1         1 IDN       0.043033
     35 H123         4.1330    -1.5700     3.5920 h1         1 IDN       0.043033
     36 H131         0.8070    -1.9690     2.0460 h1         1 IDN       0.055200
     37 H132         1.3640    -2.1230     3.6750 h1         1 IDN       0.055200
     38 H15          1.1060     1.5900     2.9370 h4         1 IDN       0.219000
     39 H19         -2.5480     0.2960    -4.9710 hn         1 IDN       0.174000
     40 H201        -1.9180     3.2890     3.2480 h1         1 IDN       0.050033
     41 H202        -1.3090     3.2770     4.9120 h1         1 IDN       0.050033
     42 H203        -0.1970     3.5250     3.5640 h1         1 IDN       0.050033
     43 H21         -3.6060    -2.6360     5.0230 ha         1 IDN       0.111000
     44 H22         -4.6340    -0.4420     5.4680 ha         1 IDN       0.111000
     45 H23         -3.4450     1.6530     4.9280 ha         1 IDN       0.114000
     46 H24         -1.3570    -2.8030     4.0280 ha         1 IDN       0.112000
     47 H251         2.1510     0.3100    -6.0470 hc         1 IDN       0.061200
     48 H252         1.0700     1.6890    -6.0670 hc         1 IDN       0.061200
     49 H261         0.3640    -1.1990    -6.7820 hc         1 IDN       0.079200
     50 H262         0.3920     0.1730    -7.8780 hc         1 IDN       0.079200
@<TRIPOS>BOND
     1     1     2 ar  
     2     1     6 ar  
     3     1    19 1   
     4     2     3 ar  
     5     2    25 1   
     6     3     4 ar  
     7     3    29 1   
     8     4     5 ar  
     9     4     7 1   
    10     5     6 ar  
    11     5    30 1   
    12     7     8 2   
    13     7    31 1   
    14     8     9 1   
    15     8    32 1   
    16     9    10 2   
    17     9    11 1   
    18    11    12 1   
    19    11    13 1   
    20    12    33 1   
    21    12    34 1   
    22    12    35 1   
    23    13    14 1   
    24    13    36 1   
    25    13    37 1   
    26    14    15 2   
    27    14    18 1   
    28    15    16 1   
    29    15    38 1   
    30    16    17 1   
    31    16    20 1   
    32    17    18 ar  
    33    17    23 ar  
    34    18    24 ar  
    35    19    27 1   
    36    19    39 1   
    37    20    40 1   
    38    20    41 1   
    39    20    42 1   
    40    21    22 ar  
    41    21    24 ar  
    42    21    43 1   
    43    22    23 ar  
    44    22    44 1   
    45    23    45 1   
    46    24    46 1   
    47    25    26 1   
    48    25    47 1   
    49    25    48 1   
    50    26    27 1   
    51    26    49 1   
    52    26    50 1   
    53    27    28 2   
@<TRIPOS>SUBSTRUCTURE
     1 IDN         1 TEMP              0 ****  ****    0 ROOT
