@<TRIPOS>MOLECULE
IDN
   50    53     1     0     0
SMALL
No Charge or Current Charge


@<TRIPOS>ATOM
      1 C01         -1.0850    -0.1660    -3.5620 ca         1 IDN       0.495900
      2 C02          0.2170     0.1220    -3.9960 ca         1 IDN      -0.175300
      3 C03          1.2440     0.1580    -3.0390 ca         1 IDN      -0.024000
      4 C04          0.9170    -0.1080    -1.6940 ca         1 IDN      -0.153800
      5 C05         -0.4340    -0.3840    -1.3710 ca         1 IDN       0.394900
      6 N06         -1.4290    -0.4140    -2.2890 nb         1 IDN      -0.717000
      7 C07          1.9880    -0.0770    -0.6540 ce         1 IDN      -0.080200
      8 C08          1.9120    -0.4710     0.6520 cf         1 IDN      -0.292200
      9 C09          3.0460    -0.3820     1.6230 c          1 IDN       0.602300
     10 O10          4.1270     0.0580     1.2530 o          1 IDN      -0.613100
     11 N11          2.8760    -0.8020     2.9630 n          1 IDN      -0.410800
     12 C12          3.9980    -0.6840     3.9230 c3         1 IDN       0.089300
     13 C13          1.6040    -1.3640     3.4690 c3         1 IDN       0.185200
     14 C14          0.5390    -0.3010     3.5850 cc         1 IDN      -0.184400
     15 C15          0.6770     0.9750     4.1270 cd         1 IDN      -0.134100
     16 N16         -0.5460     1.6680     4.0030 na         1 IDN      -0.087700
     17 C17         -1.4330     0.8070     3.3800 ca         1 IDN      -0.046200
     18 C18         -0.8200    -0.3880     3.1200 ca         1 IDN      -0.090800
     19 N19         -2.1400    -0.2140    -4.4640 ns         1 IDN      -0.322900
     20 C20         -0.8700     3.0420     4.4150 c3         1 IDN       0.064900
     21 C21         -2.8430    -1.2430     2.1230 ca         1 IDN      -0.136000
     22 C22         -3.4790    -0.0070     2.3880 ca         1 IDN      -0.093000
     23 C23         -2.7730     1.0340     3.0250 ca         1 IDN      -0.124000
     24 C24         -1.4970    -1.4450     2.4910 ca         1 IDN      -0.067000
     25 C25          0.4720     0.4280    -5.4730 c6         1 IDN      -0.016100
     26 C26         -0.5960    -0.2280    -6.3890 c6         1 IDN      -0.163400
     27 C27         -2.0290    -0.1660    -5.8290 c          1 IDN       0.575000
     28 O28         -3.0070    -0.0570    -6.5530 o          1 IDN      -0.525000
     29 H03          2.2670     0.3860    -3.3330 ha         1 IDN       0.125000
     30 H05         -0.7390    -0.5820    -0.3450 h4         1 IDN       0.027100
     31 H07          2.9440     0.3150    -1.0120 ha         1 IDN       0.197000
     32 H08          0.9730    -0.8680     1.0130 ha         1 IDN       0.190000
     33 H121         4.4080     0.3340     3.8940 h1         1 IDN       0.043033
     34 H122         3.6610    -0.8920     4.9470 h1         1 IDN       0.043033
     35 H123         4.7880    -1.3980     3.6560 h1         1 IDN       0.043033
     36 H131         1.2730    -2.1680     2.8000 h1         1 IDN       0.055200
     37 H132         1.7600    -1.8170     4.4560 h1         1 IDN       0.055200
     38 H15          1.5530     1.4380     4.5730 h4         1 IDN       0.219000
     39 H19         -3.0690    -0.2170    -4.0690 hn         1 IDN       0.174000
     40 H201        -1.1620     3.6300     3.5370 h1         1 IDN       0.050033
     41 H202        -1.6980     3.0240     5.1340 h1         1 IDN       0.050033
     42 H203         0.0070     3.5050     4.8850 h1         1 IDN       0.050033
     43 H21         -3.3950    -2.0410     1.6310 ha         1 IDN       0.111000
     44 H22         -4.5180     0.1400     2.1000 ha         1 IDN       0.111000
     45 H23         -3.2570     1.9860     3.2310 ha         1 IDN       0.114000
     46 H24         -1.0030    -2.3920     2.2900 ha         1 IDN       0.112000
     47 H251         1.4760     0.0930    -5.7690 hc         1 IDN       0.061200
     48 H252         0.4540     1.5170    -5.6170 hc         1 IDN       0.061200
     49 H261        -0.3500    -1.2980    -6.4150 hc         1 IDN       0.079200
     50 H262        -0.5690     0.1370    -7.4240 hc         1 IDN       0.079200
@<TRIPOS>BOND
     1     1     2 ar  
     2     1     6 ar  
     3     1    19 1   
     4     2     3 ar  
     5     2    25 1   
     6     3     4 ar  
     7     3    29 1   
     8     4     5 ar  
     9     4     7 1   
    10     5     6 ar  
    11     5    30 1   
    12     7     8 2   
    13     7    31 1   
    14     8     9 1   
    15     8    32 1   
    16     9    10 2   
    17     9    11 1   
    18    11    12 1   
    19    11    13 1   
    20    12    33 1   
    21    12    34 1   
    22    12    35 1   
    23    13    14 1   
    24    13    36 1   
    25    13    37 1   
    26    14    15 2   
    27    14    18 1   
    28    15    16 1   
    29    15    38 1   
    30    16    17 1   
    31    16    20 1   
    32    17    18 ar  
    33    17    23 ar  
    34    18    24 ar  
    35    19    27 1   
    36    19    39 1   
    37    20    40 1   
    38    20    41 1   
    39    20    42 1   
    40    21    22 ar  
    41    21    24 ar  
    42    21    43 1   
    43    22    23 ar  
    44    22    44 1   
    45    23    45 1   
    46    24    46 1   
    47    25    26 1   
    48    25    47 1   
    49    25    48 1   
    50    26    27 1   
    51    26    49 1   
    52    26    50 1   
    53    27    28 2   
@<TRIPOS>SUBSTRUCTURE
     1 IDN         1 TEMP              0 ****  ****    0 ROOT
