@<TRIPOS>MOLECULE
IDQ
   52    55     1     0     0
SMALL
No Charge or Current Charge


@<TRIPOS>ATOM
      1 N4          -5.6690    -3.4130    -0.9230 n8         1 IDQ      -1.000200
      2 C21         -4.3230    -3.9030    -0.5700 c3         1 IDQ       0.195100
      3 C18         -3.4030    -2.7640    -0.1510 ca         1 IDQ      -0.079300
      4 C17         -2.5310    -2.1710    -1.0840 ca         1 IDQ      -0.093500
      5 C16         -1.6750    -1.1250    -0.6960 ca         1 IDQ      -0.101500
      6 C20         -3.4080    -2.2960     1.1770 ca         1 IDQ      -0.093500
      7 C19         -2.5530    -1.2510     1.5660 ca         1 IDQ      -0.101500
      8 C15         -1.6770    -0.6570     0.6370 ca         1 IDQ      -0.115300
      9 C14         -0.7610     0.4760     1.1100 c3         1 IDQ       0.118900
     10 N2           0.2850     0.8950     0.1560 na         1 IDQ      -0.149600
     11 C9           0.2500     2.0180    -0.6810 cc         1 IDQ       0.387800
     12 C10         -0.9480     2.9120    -0.8780 c3         1 IDQ      -0.093700
     13 C11         -1.0100     4.0810     0.1320 c3         1 IDQ      -0.077400
     14 C12         -2.2550     4.9750    -0.0540 c3         1 IDQ      -0.076400
     15 C13         -2.3160     6.1400     0.9530 c3         1 IDQ      -0.089100
     16 N1           1.4390     2.2230    -1.2720 nd         1 IDQ      -0.559100
     17 C7           2.2320     1.1650    -0.8020 ca         1 IDQ      -0.038600
     18 C6           3.5820     0.8680    -1.0930 ca         1 IDQ       0.682900
     19 N3           4.3700     1.6020    -1.8880 nv         1 IDQ      -1.058900
     20 N            4.2420    -0.1690    -0.5930 nb         1 IDQ      -0.790000
     21 C            3.5600    -1.0140     0.2250 ca         1 IDQ       0.334000
     22 C8           1.5460     0.3380     0.0470 ca         1 IDQ      -0.025200
     23 C1           2.1840    -0.8180     0.5760 ca         1 IDQ      -0.094000
     24 C3           1.5430    -1.7740     1.4000 ca         1 IDQ      -0.075000
     25 C5           2.2480    -2.8840     1.8920 ca         1 IDQ      -0.135000
     26 C4           3.5980    -3.0620     1.5680 ca         1 IDQ      -0.091000
     27 C2           4.2420    -2.1330     0.7370 ca         1 IDQ      -0.106000
     28 H1          -5.5860    -2.7800    -1.7260 hn         1 IDQ       0.397000
     29 H2          -6.2230    -4.1980    -1.2870 hn         1 IDQ       0.397000
     30 H4          -4.4130    -4.6290     0.2510 h1         1 IDQ       0.037200
     31 H5          -3.8960    -4.4250    -1.4380 h1         1 IDQ       0.037200
     32 H6          -2.5150    -2.5210    -2.1140 ha         1 IDQ       0.122000
     33 H7          -1.0140    -0.6890    -1.4410 ha         1 IDQ       0.117500
     34 H8          -4.0780    -2.7440     1.9070 ha         1 IDQ       0.122000
     35 H9          -2.5710    -0.9030     2.5970 ha         1 IDQ       0.117500
     36 H10         -1.3930     1.3440     1.3300 h1         1 IDQ       0.070200
     37 H11         -0.2870     0.2140     2.0630 h1         1 IDQ       0.070200
     38 H12         -0.9260     3.3210    -1.8950 hc         1 IDQ       0.064200
     39 H13         -1.8670     2.3180    -0.8110 hc         1 IDQ       0.064200
     40 H14         -1.0040     3.6800     1.1540 hc         1 IDQ       0.046200
     41 H15         -0.1050     4.6930     0.0270 hc         1 IDQ       0.046200
     42 H16         -2.2610     5.3840    -1.0720 hc         1 IDQ       0.038700
     43 H17         -3.1610     4.3650     0.0520 hc         1 IDQ       0.038700
     44 H18         -3.2140     6.7450     0.7830 hc         1 IDQ       0.033700
     45 H19         -2.3470     5.7620     1.9830 hc         1 IDQ       0.033700
     46 H20         -1.4390     6.7900     0.8490 hc         1 IDQ       0.033700
     47 H21          4.0590     2.5540    -2.0430 hn         1 IDQ       0.488500
     48 H22          5.3610     1.4620    -1.7440 hn         1 IDQ       0.488500
     49 H23          0.4980    -1.7000     1.6640 ha         1 IDQ       0.110000
     50 H24          1.7420    -3.6100     2.5240 ha         1 IDQ       0.112000
     51 H25          4.1430    -3.9220     1.9500 ha         1 IDQ       0.112000
     52 H26          5.2870    -2.2850     0.4790 ha         1 IDQ       0.127000
@<TRIPOS>BOND
     1     1     2 1   
     2     1    28 1   
     3     1    29 1   
     4     2     3 1   
     5     2    30 1   
     6     2    31 1   
     7     3     4 ar  
     8     3     6 ar  
     9     4     5 ar  
    10     4    32 1   
    11     5     8 ar  
    12     5    33 1   
    13     6     7 ar  
    14     6    34 1   
    15     7     8 ar  
    16     7    35 1   
    17     8     9 1   
    18     9    10 1   
    19     9    36 1   
    20     9    37 1   
    21    10    11 1   
    22    10    22 1   
    23    11    12 1   
    24    11    16 2   
    25    12    13 1   
    26    12    38 1   
    27    12    39 1   
    28    13    14 1   
    29    13    40 1   
    30    13    41 1   
    31    14    15 1   
    32    14    42 1   
    33    14    43 1   
    34    15    44 1   
    35    15    45 1   
    36    15    46 1   
    37    16    17 1   
    38    17    18 ar  
    39    17    22 ar  
    40    18    19 1   
    41    18    20 ar  
    42    19    47 1   
    43    19    48 1   
    44    20    21 ar  
    45    21    23 ar  
    46    21    27 ar  
    47    22    23 ar  
    48    23    24 ar  
    49    24    25 ar  
    50    24    49 1   
    51    25    26 ar  
    52    25    50 1   
    53    26    27 ar  
    54    26    51 1   
    55    27    52 1   
@<TRIPOS>SUBSTRUCTURE
     1 IDQ         1 TEMP              0 ****  ****    0 ROOT
