@<TRIPOS>MOLECULE
IDQ
   52    55     1     0     0
SMALL
abcg2


@<TRIPOS>ATOM
      1 N4          -5.2920    -4.0190    -0.3960 n8         1 IDQ      -1.000200
      2 C21         -3.9220    -4.0190    -0.8800 c3         1 IDQ       0.195100
      3 C18         -3.1650    -2.8030    -0.4120 ca         1 IDQ      -0.079300
      4 C17         -2.3250    -2.1110    -1.2750 ca         1 IDQ      -0.093500
      5 C16         -1.5980    -1.0070    -0.8440 ca         1 IDQ      -0.101500
      6 C20         -3.2700    -2.3530     0.9040 ca         1 IDQ      -0.093500
      7 C19         -2.5430    -1.2570     1.3380 ca         1 IDQ      -0.101500
      8 C15         -1.6980    -0.5700     0.4690 ca         1 IDQ      -0.115300
      9 C14         -0.9590     0.6430     0.9770 c3         1 IDQ       0.118900
     10 N2           0.1780     1.0160     0.1660 na         1 IDQ      -0.149600
     11 C9           0.2240     2.0720    -0.7090 cc         1 IDQ       0.387800
     12 C10         -0.8860     3.0510    -0.8680 c3         1 IDQ      -0.093700
     13 C11         -0.8940     4.1240     0.2250 c3         1 IDQ      -0.077400
     14 C12         -2.0510     5.1020     0.0630 c3         1 IDQ      -0.076400
     15 C13         -2.0580     6.1790     1.1380 c3         1 IDQ      -0.089100
     16 N1           1.3670     2.1350    -1.3370 nd         1 IDQ      -0.559100
     17 C7           2.0920     1.0820    -0.8630 ca         1 IDQ      -0.038600
     18 C6           3.4190     0.6890    -1.2020 ca         1 IDQ       0.682900
     19 N3           4.0950     1.3780    -2.1470 nv         1 IDQ      -1.058900
     20 N            3.9700    -0.3490    -0.6260 nb         1 IDQ      -0.790000
     21 C            3.2690    -1.0740     0.2910 ca         1 IDQ       0.334000
     22 C8           1.3780     0.3610     0.0700 ca         1 IDQ      -0.025200
     23 C1           1.9350    -0.7880     0.7020 ca         1 IDQ      -0.094000
     24 C3           1.3080    -1.6200     1.6460 ca         1 IDQ      -0.075000
     25 C5           1.9700    -2.6970     2.1860 ca         1 IDQ      -0.135000
     26 C4           3.2860    -2.9790     1.7950 ca         1 IDQ      -0.091000
     27 C2           3.9170    -2.1850     0.8680 ca         1 IDQ      -0.106000
     28 H1          -5.8180    -3.2940    -0.8680 hn         1 IDQ       0.397000
     29 H2          -5.7350    -4.8940    -0.6450 hn         1 IDQ       0.397000
     30 H4          -3.4300    -4.9120    -0.4830 h1         1 IDQ       0.037200
     31 H5          -3.8330    -4.0880    -1.9720 h1         1 IDQ       0.037200
     32 H6          -2.2350    -2.4320    -2.3060 ha         1 IDQ       0.122000
     33 H7          -0.9550    -0.4970    -1.5510 ha         1 IDQ       0.117500
     34 H8          -3.9280    -2.8660     1.5930 ha         1 IDQ       0.122000
     35 H9          -2.6310    -0.9320     2.3690 ha         1 IDQ       0.117500
     36 H10         -1.6400     1.4930     1.0130 h1         1 IDQ       0.070200
     37 H11         -0.6300     0.4930     2.0070 h1         1 IDQ       0.070200
     38 H12         -0.7620     3.5260    -1.8420 hc         1 IDQ       0.064200
     39 H13         -1.8520     2.5390    -0.8990 hc         1 IDQ       0.064200
     40 H14         -0.9530     3.6570     1.2130 hc         1 IDQ       0.046200
     41 H15          0.0560     4.6660     0.2000 hc         1 IDQ       0.046200
     42 H16         -1.9980     5.5670    -0.9250 hc         1 IDQ       0.038700
     43 H17         -2.9950     4.5490     0.0880 hc         1 IDQ       0.038700
     44 H18         -2.9030     6.8570     1.0160 hc         1 IDQ       0.033700
     45 H19         -2.1270     5.7400     2.1350 hc         1 IDQ       0.033700
     46 H20         -1.1460     6.7770     1.1040 hc         1 IDQ       0.033700
     47 H21          3.7670     2.2930    -2.4050 hn         1 IDQ       0.488500
     48 H22          5.0850     1.2220    -2.2300 hn         1 IDQ       0.488500
     49 H23          0.2910    -1.4290     1.9540 ha         1 IDQ       0.110000
     50 H24          1.4710    -3.3260     2.9110 ha         1 IDQ       0.112000
     51 H25          3.8060    -3.8260     2.2220 ha         1 IDQ       0.112000
     52 H26          4.9310    -2.3990     0.5570 ha         1 IDQ       0.127000
@<TRIPOS>BOND
     1     1     2 1   
     2     1    28 1   
     3     1    29 1   
     4     2     3 1   
     5     2    30 1   
     6     2    31 1   
     7     3     4 ar  
     8     3     6 ar  
     9     4     5 ar  
    10     4    32 1   
    11     5     8 ar  
    12     5    33 1   
    13     6     7 ar  
    14     6    34 1   
    15     7     8 ar  
    16     7    35 1   
    17     8     9 1   
    18     9    10 1   
    19     9    36 1   
    20     9    37 1   
    21    10    11 1   
    22    10    22 1   
    23    11    12 1   
    24    11    16 2   
    25    12    13 1   
    26    12    38 1   
    27    12    39 1   
    28    13    14 1   
    29    13    40 1   
    30    13    41 1   
    31    14    15 1   
    32    14    42 1   
    33    14    43 1   
    34    15    44 1   
    35    15    45 1   
    36    15    46 1   
    37    16    17 1   
    38    17    18 ar  
    39    17    22 ar  
    40    18    19 1   
    41    18    20 ar  
    42    19    47 1   
    43    19    48 1   
    44    20    21 ar  
    45    21    23 ar  
    46    21    27 ar  
    47    22    23 ar  
    48    23    24 ar  
    49    24    25 ar  
    50    24    49 1   
    51    25    26 ar  
    52    25    50 1   
    53    26    27 ar  
    54    26    51 1   
    55    27    52 1   
@<TRIPOS>SUBSTRUCTURE
     1 IDQ         1 TEMP              0 ****  ****    0 ROOT
