@<TRIPOS>MOLECULE
IDR
   22    22     1     0     0
SMALL
abcg2


@<TRIPOS>ATOM
      1 C1          28.1310    27.8020    47.5140 c6         1 IDR       0.386300
      2 C2          27.7140    27.0390    48.7740 c6         1 IDR       0.162300
      3 C3          27.0780    27.9500    49.8340 c6         1 IDR       0.129300
      4 C4          26.0660    28.9300    49.2280 c6         1 IDR       0.150300
      5 C5          26.6650    29.6150    48.0020 c6         1 IDR      -0.007700
      6 C6          25.6600    30.4980    47.2230 c          1 IDR       0.733000
      7 O1          29.3210    28.4790    47.7750 oh         1 IDR      -0.739000
      8 O2          26.8270    26.0410    48.3320 oh         1 IDR      -0.703000
      9 O3          28.1290    28.6280    50.4820 oh         1 IDR      -0.714000
     10 O4          24.8840    28.2380    48.9360 oh         1 IDR      -0.785000
     11 O5          27.1200    28.6530    47.0550 os         1 IDR      -0.442000
     12 O6A         26.1050    31.5000    46.6550 o          1 IDR      -0.706000
     13 O6B         24.4650    30.0990    47.2090 o          1 IDR      -0.706000
     14 H1          28.2650    27.0750    46.7020 h2         1 IDR       0.051700
     15 H2          28.6170    26.5910    49.2140 h1         1 IDR       0.035700
     16 H3          26.5400    27.3080    50.5520 h1         1 IDR       0.017700
     17 H4          25.8840    29.7230    49.9780 h1         1 IDR       0.008700
     18 H5          27.4970    30.2460    48.3350 h1         1 IDR       0.044700
     19 HO1         29.6590    28.8310    46.9440 ho         1 IDR       0.506000
     20 HO2         26.3960    25.6510    49.0990 ho         1 IDR       0.500000
     21 HO3         27.7470    29.1930    51.1610 ho         1 IDR       0.494000
     22 HO4         24.4560    28.8070    48.2490 ho         1 IDR       0.583000
@<TRIPOS>BOND
     1     1     2 1   
     2     1     7 1   
     3     1    11 1   
     4     1    14 1   
     5     2     3 1   
     6     2     8 1   
     7     2    15 1   
     8     3     4 1   
     9     3     9 1   
    10     3    16 1   
    11     4     5 1   
    12     4    10 1   
    13     4    17 1   
    14     5     6 1   
    15     5    11 1   
    16     5    18 1   
    17     6    12 1   
    18     6    13 1   
    19     7    19 1   
    20     8    20 1   
    21     9    21 1   
    22    10    22 1   
@<TRIPOS>SUBSTRUCTURE
     1 IDR         1 TEMP              0 ****  ****    0 ROOT
