@<TRIPOS>MOLECULE
IDR
   22    22     1     0     0
SMALL
No Charge or Current Charge


@<TRIPOS>ATOM
      1 C1          28.1990    27.6480    47.4840 c6         1 IDR       0.386300
      2 C2          27.7930    26.9420    48.8440 c6         1 IDR       0.162300
      3 C3          27.2340    27.9810    49.8890 c6         1 IDR       0.129300
      4 C4          26.0860    28.8200    49.2180 c6         1 IDR       0.150300
      5 C5          26.6440    29.5000    47.9280 c6         1 IDR      -0.007700
      6 C6          25.6020    30.5010    47.3220 c          1 IDR       0.733000
      7 O1          29.3560    28.4770    47.5690 oh         1 IDR      -0.739000
      8 O2          26.7390    25.9870    48.5990 oh         1 IDR      -0.703000
      9 O3          28.2680    28.8320    50.4300 oh         1 IDR      -0.714000
     10 O4          24.9710    27.9490    48.9050 oh         1 IDR      -0.785000
     11 O5          27.1230    28.4750    46.9880 os         1 IDR      -0.442000
     12 O6A         25.8560    31.6860    47.4990 o          1 IDR      -0.706000
     13 O6B         25.0230    30.1570    46.2980 o          1 IDR      -0.706000
     14 H1          28.3950    26.8580    46.7420 h2         1 IDR       0.051700
     15 H2          28.6710    26.4310    49.2630 h1         1 IDR       0.035700
     16 H3          26.7940    27.4130    50.7220 h1         1 IDR       0.017700
     17 H4          25.7590    29.5980    49.9230 h1         1 IDR       0.008700
     18 H5          27.5010    30.1240    48.2190 h1         1 IDR       0.044700
     19 HO1         29.2360    29.1170    46.8350 ho         1 IDR       0.506000
     20 HO2         25.9250    26.5720    48.6110 ho         1 IDR       0.500000
     21 HO3         27.8760    29.3060    51.2000 ho         1 IDR       0.494000
     22 HO4         24.1760    28.5240    48.7640 ho         1 IDR       0.583000
@<TRIPOS>BOND
     1     1     2 1   
     2     1     7 1   
     3     1    11 1   
     4     1    14 1   
     5     2     3 1   
     6     2     8 1   
     7     2    15 1   
     8     3     4 1   
     9     3     9 1   
    10     3    16 1   
    11     4     5 1   
    12     4    10 1   
    13     4    17 1   
    14     5     6 1   
    15     5    11 1   
    16     5    18 1   
    17     6    12 1   
    18     6    13 1   
    19     7    19 1   
    20     8    20 1   
    21     9    21 1   
    22    10    22 1   
@<TRIPOS>SUBSTRUCTURE
     1 IDR         1 TEMP              0 ****  ****    0 ROOT
