@<TRIPOS>MOLECULE
IDS
   25    25     1     0     0
SMALL
abcg2


@<TRIPOS>ATOM
      1 C1           3.9700     7.1680     3.5440 c6         1 IDS       0.370300
      2 C2           2.7600     8.0560     3.8720 c6         1 IDS       0.165300
      3 C3           1.4670     7.3130     3.5370 c6         1 IDS       0.160300
      4 C4           1.4400     7.0130     2.0350 c6         1 IDS       0.173300
      5 C5           2.8660     6.7960     1.4980 c6         1 IDS      -0.011700
      6 C6           2.9260     5.8890     0.2460 c          1 IDS       0.736000
      7 O1           5.0400     8.0140     3.2570 oh         1 IDS      -0.674000
      8 O2           2.8710     8.3390     5.2650 os         1 IDS      -0.610700
      9 O3           0.3010     8.0290     3.8490 oh         1 IDS      -0.701000
     10 O4           0.5890     5.9180     1.8200 oh         1 IDS      -0.759000
     11 O5           3.7020     6.2710     2.5110 os         1 IDS      -0.452000
     12 O6A          1.8900     5.9000    -0.4670 o          1 IDS      -0.729000
     13 O6B          3.9740     5.2760     0.0300 o          1 IDS      -0.729000
     14 S            2.4390     9.8090     5.8690 s6         1 IDS       1.508300
     15 O1S          3.0320     9.7520     7.1980 o          1 IDS      -0.713200
     16 O2S          3.0030    10.8100     4.9670 o          1 IDS      -0.713200
     17 O3S          0.9640     9.7880     5.8760 o          1 IDS      -0.713200
     18 H1           4.1890     6.5370     4.4140 h2         1 IDS       0.053700
     19 H2           2.8110     8.9820     3.2870 h1         1 IDS       0.073700
     20 H3           1.4920     6.3520     4.0760 h1         1 IDS       0.042700
     21 H4           1.0510     7.9160     1.5390 h1         1 IDS       0.025700
     22 H5           3.2470     7.7770     1.1710 h1         1 IDS       0.032700
     23 HO1          5.8560     7.5010     3.2740 ho         1 IDS       0.429000
     24 HO3          0.4190     8.5340     4.6710 ho         1 IDS       0.489000
     25 HO4          0.7070     5.7270     0.8690 ho         1 IDS       0.548000
@<TRIPOS>BOND
     1     1     2 1   
     2     1     7 1   
     3     1    11 1   
     4     1    18 1   
     5     2     3 1   
     6     2     8 1   
     7     2    19 1   
     8     3     4 1   
     9     3     9 1   
    10     3    20 1   
    11     4     5 1   
    12     4    10 1   
    13     4    21 1   
    14     5     6 1   
    15     5    11 1   
    16     5    22 1   
    17     6    12 1   
    18     6    13 1   
    19     7    23 1   
    20     8    14 1   
    21     9    24 1   
    22    10    25 1   
    23    14    15 1   
    24    14    16 1   
    25    14    17 1   
@<TRIPOS>SUBSTRUCTURE
     1 IDS         1 TEMP              0 ****  ****    0 ROOT
