@<TRIPOS>MOLECULE
IDS
   25    25     1     0     0
SMALL
No Charge or Current Charge


@<TRIPOS>ATOM
      1 C1           3.9120     7.0520     3.6210 c6         1 IDS       0.370300
      2 C2           2.7240     8.0260     3.9830 c6         1 IDS       0.165300
      3 C3           1.3910     7.3780     3.4810 c6         1 IDS       0.160300
      4 C4           1.4240     7.1660     1.9150 c6         1 IDS       0.173300
      5 C5           2.8660     6.7990     1.4330 c6         1 IDS      -0.011700
      6 C6           2.8600     5.9810     0.0930 c          1 IDS       0.736000
      7 O1           5.0870     7.7600     3.2360 oh         1 IDS      -0.674000
      8 O2           2.6960     8.2840     5.4150 os         1 IDS      -0.610700
      9 O3           0.2200     8.1290     3.8810 oh         1 IDS      -0.701000
     10 O4           0.4610     6.1590     1.5350 oh         1 IDS      -0.759000
     11 O5           3.5830     6.1600     2.5340 os         1 IDS      -0.452000
     12 O6A          3.1310     4.7870     0.1740 o          1 IDS      -0.729000
     13 O6B          3.2110     6.6040    -0.9020 o          1 IDS      -0.729000
     14 S            2.4450     9.8190     5.9320 s6         1 IDS       1.508300
     15 O1S          2.4230     9.7010     7.3960 o          1 IDS      -0.713200
     16 O2S          3.5820    10.5740     5.3930 o          1 IDS      -0.713200
     17 O3S          1.1510    10.1550     5.3240 o          1 IDS      -0.713200
     18 H1           4.1370     6.4350     4.5050 h2         1 IDS       0.053700
     19 H2           2.8850     8.9680     3.4360 h1         1 IDS       0.073700
     20 H3           1.3390     6.3830     3.9500 h1         1 IDS       0.042700
     21 H4           1.1570     8.1170     1.4310 h1         1 IDS       0.025700
     22 H5           3.3860     7.7400     1.2010 h1         1 IDS       0.032700
     23 HO1          5.6470     7.0850     2.8010 ho         1 IDS       0.429000
     24 HO3          0.5510     8.8800     4.4530 ho         1 IDS       0.489000
     25 HO4          0.7350     5.3240     1.9850 ho         1 IDS       0.548000
@<TRIPOS>BOND
     1     1     2 1   
     2     1     7 1   
     3     1    11 1   
     4     1    18 1   
     5     2     3 1   
     6     2     8 1   
     7     2    19 1   
     8     3     4 1   
     9     3     9 1   
    10     3    20 1   
    11     4     5 1   
    12     4    10 1   
    13     4    21 1   
    14     5     6 1   
    15     5    11 1   
    16     5    22 1   
    17     6    12 1   
    18     6    13 1   
    19     7    23 1   
    20     8    14 1   
    21     9    24 1   
    22    10    25 1   
    23    14    15 1   
    24    14    16 1   
    25    14    17 1   
@<TRIPOS>SUBSTRUCTURE
     1 IDS         1 TEMP              0 ****  ****    0 ROOT
