@<TRIPOS>MOLECULE
IDV
   49    52     1     0     0
SMALL
bcc


@<TRIPOS>ATOM
      1 C4          -3.2970    -3.0270    -0.4810 ca         1 IDV      -0.121000
      2 C5          -1.9450    -2.7200    -0.4960 ca         1 IDV      -0.115000
      3 C6          -1.4810    -1.5380     0.0840 cp         1 IDV      -0.030000
      4 C7          -2.4060    -0.6780     0.6710 ca         1 IDV      -0.138000
      5 C8          -0.0470    -1.1860     0.0580 cp         1 IDV       0.006000
      6 C9           0.3340     0.1570    -0.1900 ca         1 IDV      -0.165000
      7 C10          1.6530     0.5380    -0.2320 ca         1 IDV      -0.051000
      8 C11          2.6320    -0.4390    -0.0210 ca         1 IDV      -0.260900
      9 C12          4.0570    -0.4740     0.0210 cc         1 IDV       0.429500
     10 N3           4.4920    -1.6820     0.2690 nd         1 IDV      -0.508100
     11 C13          6.2120     0.7200    -0.0710 c          1 IDV       0.705100
     12 C14          6.7520     2.0700    -0.3760 cx         1 IDV      -0.251700
     13 C15          7.9560     2.5390     0.3990 cx         1 IDV      -0.094900
     14 N4           3.4010    -2.4550     0.3950 na         1 IDV      -0.013100
     15 O2          -6.3500     0.0830    -0.5830 o          1 IDV      -0.615300
     16 S           -5.5160     0.9170     0.2570 s6         1 IDV       1.428800
     17 O1          -6.1180     1.9050     1.1330 o          1 IDV      -0.615300
     18 N           -4.3950     1.6070    -0.7020 n3         1 IDV      -0.823500
     19 C1          -4.3570     1.3810    -2.1360 c3         1 IDV       0.218100
     20 C           -3.6010     2.7040    -0.1800 c3         1 IDV       0.218100
     21 C2          -3.7590    -0.9910     0.6900 ca         1 IDV       0.088600
     22 C3          -4.2110    -2.1700     0.1130 ca         1 IDV      -0.094000
     23 C18          0.9120    -2.1600     0.2680 ca         1 IDV      -0.140000
     24 C17          2.2530    -1.7670     0.2250 ca         1 IDV      -0.016200
     25 O            6.9140    -0.2200     0.2510 o          1 IDV      -0.550100
     26 C16          8.1090     2.1540    -1.0250 cx         1 IDV      -0.094900
     27 H1          -3.6420    -3.9460    -0.9370 ha         1 IDV       0.141000
     28 H2          -1.2500    -3.3930    -0.9810 ha         1 IDV       0.137000
     29 H3          -4.3160     0.4060     2.0900 hn         1 IDV       0.427800
     30 H4          -2.0710     0.2400     1.1400 ha         1 IDV       0.132000
     31 H5           4.3670     1.4750    -0.4520 hn         1 IDV       0.323500
     32 H6          -0.4330     0.8980    -0.3750 ha         1 IDV       0.131000
     33 H7           1.9170     1.5690    -0.4300 ha         1 IDV       0.130000
     34 H10          6.0320     2.8300    -0.6580 hc         1 IDV       0.082700
     35 H11          7.9840     3.5890     0.6600 hc         1 IDV       0.083200
     36 H12          8.3520     1.8720     1.1540 hc         1 IDV       0.083200
     37 H13          3.5140    -3.4370     0.5830 hn         1 IDV       0.332700
     38 H14         -4.9200     2.1380    -2.6850 h1         1 IDV       0.044700
     39 H15         -3.3170     1.4210    -2.4570 h1         1 IDV       0.044700
     40 H16         -4.7430     0.3990    -2.3910 h1         1 IDV       0.044700
     41 H17         -3.5890     2.7060     0.9080 h1         1 IDV       0.044700
     42 H18         -2.5710     2.5890    -0.5190 h1         1 IDV       0.044700
     43 H19         -3.9750     3.6710    -0.5190 h1         1 IDV       0.044700
     44 H20         -5.2630    -2.4190     0.1370 ha         1 IDV       0.163000
     45 H21          0.6370    -3.1840     0.4810 ha         1 IDV       0.144000
     46 H22          8.6070     1.2190    -1.2480 hc         1 IDV       0.083200
     47 H23          8.2450     2.9310    -1.7650 hc         1 IDV       0.083200
     48 N1          -4.6880    -0.1030     1.2940 nu         1 IDV      -0.671500
     49 N2           4.8570     0.6350    -0.1870 ns         1 IDV      -0.469400
@<TRIPOS>BOND
     1     1     2 ar  
     2     1    22 ar  
     3     1    27 1   
     4     2     3 ar  
     5     2    28 1   
     6     3     4 ar  
     7     3     5 1   
     8     4    21 ar  
     9     4    30 1   
    10     5     6 ar  
    11     5    23 ar  
    12     6     7 ar  
    13     6    32 1   
    14     7     8 ar  
    15     7    33 1   
    16     8     9 1   
    17     8    24 ar  
    18     9    10 2   
    19     9    49 1   
    20    10    14 1   
    21    11    12 1   
    22    11    25 2   
    23    11    49 1   
    24    12    13 1   
    25    12    26 1   
    26    12    34 1   
    27    13    26 1   
    28    13    35 1   
    29    13    36 1   
    30    14    24 1   
    31    14    37 1   
    32    15    16 2   
    33    16    17 2   
    34    16    18 1   
    35    16    48 1   
    36    18    19 1   
    37    18    20 1   
    38    19    38 1   
    39    19    39 1   
    40    19    40 1   
    41    20    41 1   
    42    20    42 1   
    43    20    43 1   
    44    21    22 ar  
    45    21    48 1   
    46    22    44 1   
    47    23    24 ar  
    48    23    45 1   
    49    26    46 1   
    50    26    47 1   
    51    29    48 1   
    52    31    49 1   
@<TRIPOS>SUBSTRUCTURE
     1 IDV         1 TEMP              0 ****  ****    0 ROOT
