@<TRIPOS>MOLECULE
IDV
   49    52     1     0     0
SMALL
No Charge or Current Charge


@<TRIPOS>ATOM
      1 C4          -3.0120    -2.3920    -0.6720 ca         1 IDV      -0.103000
      2 C5          -1.6140    -2.2570    -0.6620 ca         1 IDV      -0.097000
      3 C6          -0.9960    -1.1100    -0.1050 cp         1 IDV      -0.030000
      4 C7          -1.8360    -0.1050     0.4390 ca         1 IDV      -0.120000
      5 C8           0.4950    -0.9650    -0.0920 cp         1 IDV       0.006000
      6 C9           1.1110     0.3150    -0.2570 ca         1 IDV      -0.147000
      7 C10          2.5140     0.4700    -0.2470 ca         1 IDV      -0.033000
      8 C11          3.2870    -0.6850    -0.0670 ca         1 IDV      -0.260900
      9 C12          4.7050    -0.9160     0.0010 cc         1 IDV       0.429500
     10 N3           5.0140    -2.2040     0.1920 nd         1 IDV      -0.508100
     11 C13          6.9530     0.1160    -0.0850 c          1 IDV       0.638100
     12 C14          7.5660     1.4850    -0.2610 cx         1 IDV      -0.251700
     13 C15          7.2930     2.5510     0.7830 cx         1 IDV      -0.094900
     14 N4           3.7530    -2.8180     0.2480 na         1 IDV      -0.063400
     15 O2          -6.3780     0.1710     1.3000 o          1 IDV      -0.544500
     16 S           -5.5660     1.2240     0.6900 s6         1 IDV       1.287200
     17 O1          -5.7060     2.6290     1.0680 o          1 IDV      -0.544500
     18 N           -5.7250     1.0990    -1.0050 n3         1 IDV      -0.823500
     19 C1          -7.1060     1.3160    -1.4760 c3         1 IDV       0.218100
     20 C           -4.7370     1.8750    -1.7830 c3         1 IDV       0.218100
     21 C2          -3.2370    -0.2260     0.4290 ca         1 IDV       0.227000
     22 C3          -3.8200    -1.3820    -0.1270 ca         1 IDV      -0.076000
     23 C18          1.3370    -2.1000     0.0860 ca         1 IDV      -0.122000
     24 C17          2.7230    -1.9100     0.0920 ca         1 IDV      -0.016200
     25 O            7.6360    -0.8860     0.0670 o          1 IDV      -0.550100
     26 C16          8.6640     1.9260     0.6880 cx         1 IDV      -0.094900
     27 H1          -3.4690    -3.2790    -1.1060 ha         1 IDV       0.123000
     28 H2          -1.0070    -3.0440    -1.1020 ha         1 IDV       0.119000
     29 H3          -3.5330     1.6700     1.2130 hn         1 IDV       0.483000
     30 H4          -1.3890     0.7770     0.8870 ha         1 IDV       0.114000
     31 H5           5.1830     1.0470    -0.2650 hn         1 IDV       0.323500
     32 H6           0.4930     1.1960    -0.4100 ha         1 IDV       0.113000
     33 H7           2.9680     1.4500    -0.3770 ha         1 IDV       0.112000
     34 H10          7.6520     1.8160    -1.2930 hc         1 IDV       0.082700
     35 H11          7.1810     3.5790     0.4450 hc         1 IDV       0.083200
     36 H12          6.6820     2.2900     1.6460 hc         1 IDV       0.083200
     37 H13          3.6530    -3.8220     0.3890 hn         1 IDV       0.383000
     38 H14         -7.4330     2.3460    -1.2780 h1         1 IDV       0.044700
     39 H15         -7.1810     1.1360    -2.5560 h1         1 IDV       0.044700
     40 H16         -7.8050     0.6310    -0.9770 h1         1 IDV       0.044700
     41 H17         -3.7070     1.5880    -1.5360 h1         1 IDV       0.044700
     42 H18         -4.8710     1.7010    -2.8590 h1         1 IDV       0.044700
     43 H19         -4.8470     2.9520    -1.5990 h1         1 IDV       0.044700
     44 H20         -4.8990    -1.5040    -0.1430 ha         1 IDV       0.145000
     45 H21          0.9190    -3.0920     0.2300 ha         1 IDV       0.126000
     46 H22          8.9650     1.2450     1.4820 hc         1 IDV       0.083200
     47 H23          9.4710     2.5340     0.2850 hc         1 IDV       0.083200
     48 N1          -3.9970     0.8030     0.9890 nu         1 IDV      -0.865100
     49 N2           5.5820     0.1330    -0.1250 ns         1 IDV      -0.402400
@<TRIPOS>BOND
     1     1     2 ar  
     2     1    22 ar  
     3     1    27 1   
     4     2     3 ar  
     5     2    28 1   
     6     3     4 ar  
     7     3     5 1   
     8     4    21 ar  
     9     4    30 1   
    10     5     6 ar  
    11     5    23 ar  
    12     6     7 ar  
    13     6    32 1   
    14     7     8 ar  
    15     7    33 1   
    16     8     9 1   
    17     8    24 ar  
    18     9    10 2   
    19     9    49 1   
    20    10    14 1   
    21    11    12 1   
    22    11    25 2   
    23    11    49 1   
    24    12    13 1   
    25    12    26 1   
    26    12    34 1   
    27    13    26 1   
    28    13    35 1   
    29    13    36 1   
    30    14    24 1   
    31    14    37 1   
    32    15    16 2   
    33    16    17 2   
    34    16    18 1   
    35    16    48 1   
    36    18    19 1   
    37    18    20 1   
    38    19    38 1   
    39    19    39 1   
    40    19    40 1   
    41    20    41 1   
    42    20    42 1   
    43    20    43 1   
    44    21    22 ar  
    45    21    48 1   
    46    22    44 1   
    47    23    24 ar  
    48    23    45 1   
    49    26    46 1   
    50    26    47 1   
    51    29    48 1   
    52    31    49 1   
@<TRIPOS>SUBSTRUCTURE
     1 IDV         1 TEMP              0 ****  ****    0 ROOT
