@<TRIPOS>MOLECULE
IDW
   50    54     1     0     0
SMALL
No Charge or Current Charge


@<TRIPOS>ATOM
      1 C1          -2.5010   -11.1980    23.0260 ca         1 IDW       0.196300
      2 C2          -2.6590   -10.4260    24.1860 ca         1 IDW      -0.327000
      3 C3          -1.5080   -10.0920    24.8980 ca         1 IDW       0.420900
      4 N6           1.9980    -6.1960    22.1280 nb         1 IDW      -0.628000
      5 C7          -0.2340   -11.2230    23.3770 ca         1 IDW       0.434900
      6 C8           1.3030   -12.3400    21.6640 c5         1 IDW       0.239800
      7 C9           2.8360   -12.1770    21.5170 c5         1 IDW      -0.101400
      8 C10          3.2990   -12.3360    22.9870 c5         1 IDW      -0.087400
      9 C11          2.3010   -11.4110    23.7410 c5         1 IDW       0.214200
     10 C12          2.8050    -9.9760    23.7720 cc         1 IDW       0.159300
     11 C13          3.1370    -7.7910    23.5430 cd         1 IDW       0.229000
     12 C14          2.3560    -8.8840    23.1030 cd         1 IDW      -0.186000
     13 C15          2.9740    -6.3820    23.0740 ca         1 IDW       0.252000
     14 C16          1.8170    -4.9270    21.6750 ca         1 IDW       0.278900
     15 C18          3.7550    -5.2650    23.5520 ca         1 IDW       0.354300
     16 N7           3.5610    -3.9980    23.0870 nb         1 IDW      -0.652000
     17 C17          2.5900    -3.8410    22.1490 ca         1 IDW       0.304900
     18 N5           4.0370    -8.1810    24.4400 nc         1 IDW      -0.366300
     19 O            3.8290    -9.6010    24.6010 os         1 IDW      -0.069700
     20 N4           1.0490   -11.6340    22.9500 nh         1 IDW      -0.785300
     21 N3          -1.2830   -11.5950    22.6160 nb         1 IDW      -0.279000
     22 C           -3.6860   -11.6080    22.1740 c3         1 IDW      -0.151400
     23 N2          -0.2940   -10.4920    24.5040 nb         1 IDW      -0.319000
     24 N           -1.6080    -9.3200    26.0370 nu         1 IDW      -0.886800
     25 C4          -0.7170    -8.6960    26.8450 cc         1 IDW       0.662300
     26 S            1.0280    -8.6630    26.6920 ss         1 IDW       0.053600
     27 C6           1.0450    -7.6460    28.1040 cc         1 IDW      -0.315000
     28 C5          -0.2300    -7.4140    28.5680 cd         1 IDW       0.304900
     29 N1          -1.2440    -8.0190    27.8370 nd         1 IDW      -0.721000
     30 H1          -3.6420   -10.0980    24.5110 ha         1 IDW       0.136000
     31 H2           0.7710   -11.8870    20.8150 h1         1 IDW       0.059700
     32 H3           1.0160   -13.3990    21.7310 h1         1 IDW       0.059700
     33 H4           3.2710   -12.9280    20.8480 hc         1 IDW       0.060700
     34 H5           3.0940   -11.1900    21.1160 hc         1 IDW       0.060700
     35 H6           3.1980   -13.3760    23.3220 hc         1 IDW       0.065200
     36 H7           4.3460   -12.0490    23.1400 hc         1 IDW       0.065200
     37 H8           2.1860   -11.7600    24.7780 h1         1 IDW       0.095700
     38 H9           1.5440    -8.8610    22.3860 ha         1 IDW       0.171000
     39 H10          1.0440    -4.7780    20.9240 h4         1 IDW       0.032100
     40 H11          5.3020    -4.3750    24.8160 hc         1 IDW       0.063367
     41 H12          4.4620    -5.7370    25.5530 hc         1 IDW       0.063367
     42 H13          5.6670    -6.0110    24.2720 hc         1 IDW       0.063367
     43 H14          2.4270    -2.8330    21.7710 h4         1 IDW       0.031100
     44 H15         -3.5540   -12.6170    21.7660 hc         1 IDW       0.056367
     45 H16         -4.6140   -11.6060    22.7560 hc         1 IDW       0.056367
     46 H17         -3.8160   -10.9180    21.3320 hc         1 IDW       0.056367
     47 H18         -2.5520    -9.1070    26.3350 hn         1 IDW       0.520000
     48 H19          1.9840    -7.2850    28.5010 h4         1 IDW       0.161000
     49 H20         -0.4830    -6.8110    29.4330 h4         1 IDW       0.037100
     50 C19          4.8550    -5.3540    24.6050 c3         1 IDW      -0.145400
@<TRIPOS>BOND
     1     1     2 ar  
     2     1    21 ar  
     3     1    22 1   
     4     2     3 ar  
     5     2    30 1   
     6     3    23 ar  
     7     3    24 1   
     8     4    13 ar  
     9     4    14 ar  
    10     5    20 1   
    11     5    21 ar  
    12     5    23 ar  
    13     6     7 1   
    14     6    20 1   
    15     6    31 1   
    16     6    32 1   
    17     7     8 1   
    18     7    33 1   
    19     7    34 1   
    20     8     9 1   
    21     8    35 1   
    22     8    36 1   
    23     9    10 1   
    24     9    20 1   
    25     9    37 1   
    26    10    12 2   
    27    10    19 1   
    28    11    12 1   
    29    11    13 1   
    30    11    18 2   
    31    12    38 1   
    32    13    15 ar  
    33    14    17 ar  
    34    14    39 1   
    35    15    16 ar  
    36    15    50 1   
    37    16    17 ar  
    38    17    43 1   
    39    18    19 1   
    40    22    44 1   
    41    22    45 1   
    42    22    46 1   
    43    24    25 1   
    44    24    47 1   
    45    25    26 1   
    46    25    29 2   
    47    26    27 1   
    48    27    28 2   
    49    27    48 1   
    50    28    29 1   
    51    28    49 1   
    52    40    50 1   
    53    41    50 1   
    54    42    50 1   
@<TRIPOS>SUBSTRUCTURE
     1 IDW         1 TEMP              0 ****  ****    0 ROOT
