@<TRIPOS>MOLECULE
IDW
   50    54     1     0     0
SMALL
bcc


@<TRIPOS>ATOM
      1 C1          -2.5040   -11.2430    23.1420 ca         1 IDW       0.524600
      2 C2          -2.6860   -10.5280    24.3080 ca         1 IDW      -0.475600
      3 C3          -1.5210   -10.1270    24.9740 ca         1 IDW       0.749200
      4 N6           2.5400    -6.1390    21.7360 nb         1 IDW      -0.628000
      5 C7          -0.2500   -11.1290    23.3940 ca         1 IDW       0.960900
      6 C8           1.1960   -12.2160    21.7180 c5         1 IDW       0.239800
      7 C9           2.7130   -12.2260    21.5840 c5         1 IDW      -0.101400
      8 C10          3.1880   -12.1930    23.0310 c5         1 IDW      -0.087400
      9 C11          2.1880   -11.2390    23.7040 c5         1 IDW       0.214200
     10 C12          2.6300    -9.8130    23.6480 cc         1 IDW       0.269000
     11 C13          3.0660    -7.6940    23.4160 cd         1 IDW       0.294300
     12 C14          2.2830    -8.7540    22.8860 cd         1 IDW      -0.334600
     13 C15          3.0610    -6.3030    22.9470 ca         1 IDW       0.252000
     14 C16          2.4980    -4.9190    21.2320 ca         1 IDW       0.278900
     15 C18          3.5350    -5.2080    23.6930 ca         1 IDW       0.354300
     16 N7           3.4830    -3.9890    23.1660 nb         1 IDW      -0.652000
     17 C17          2.9810    -3.8380    21.9510 ca         1 IDW       0.304900
     18 N5           3.8220    -8.1140    24.3940 nc         1 IDW      -0.366300
     19 O            3.5560    -9.4360    24.5340 os         1 IDW      -0.114100
     20 N4           0.9800   -11.4420    22.9330 nh         1 IDW      -0.785300
     21 N3          -1.2890   -11.5460    22.6770 nb         1 IDW      -0.805000
     22 C           -3.6670   -11.7160    22.3300 c3         1 IDW      -0.151400
     23 N2          -0.3140   -10.4250    24.5310 nb         1 IDW      -0.845000
     24 N           -1.6140    -9.3920    26.1200 nu         1 IDW      -0.831600
     25 C4          -0.5970    -8.8120    26.8290 cc         1 IDW       0.662300
     26 S            1.0780    -8.9260    26.4040 ss         1 IDW      -0.091300
     27 C6           1.4460    -7.9310    27.7650 cc         1 IDW      -0.253400
     28 C5           0.3070    -7.6050    28.4180 cd         1 IDW       0.370200
     29 N1          -0.8490    -8.1040    27.8870 nd         1 IDW      -0.721000
     30 H1          -3.6700   -10.2780    24.6790 ha         1 IDW       0.154000
     31 H2           0.7000   -11.7550    20.8650 h1         1 IDW       0.059700
     32 H3           0.7980   -13.2290    21.8270 h1         1 IDW       0.059700
     33 H4           3.0700   -13.1000    21.0410 hc         1 IDW       0.060700
     34 H5           3.0540   -11.3380    21.0480 hc         1 IDW       0.060700
     35 H6           3.0920   -13.1810    23.4870 hc         1 IDW       0.065200
     36 H7           4.2220   -11.8710    23.1490 hc         1 IDW       0.065200
     37 H8           2.0350   -11.5070    24.7530 h1         1 IDW       0.095700
     38 H9           1.5610    -8.7100    22.0890 ha         1 IDW       0.189000
     39 H10          2.0730    -4.7960    20.2430 h4         1 IDW       0.032100
     40 H11          4.2550    -4.3180    25.4750 hc         1 IDW       0.063367
     41 H12          3.4210    -5.8580    25.7410 hc         1 IDW       0.063367
     42 H13          5.0430    -5.8510    25.0830 hc         1 IDW       0.063367
     43 H14          2.9540    -2.8360    21.5400 h4         1 IDW       0.031100
     44 H15         -3.6270   -12.7980    22.2060 hc         1 IDW       0.056367
     45 H16         -4.6170   -11.4530    22.7910 hc         1 IDW       0.056367
     46 H17         -3.6330   -11.2770    21.3320 hc         1 IDW       0.056367
     47 H18         -2.5380    -9.1880    26.4740 hn         1 IDW       0.464800
     48 H19          2.4620    -7.6560    28.0030 h4         1 IDW       0.179000
     49 H20          0.2570    -6.9910    29.3060 h4         1 IDW       0.037100
     50 C19          4.0930    -5.3160    25.0760 c3         1 IDW      -0.145400
@<TRIPOS>BOND
     1     1     2 ar  
     2     1    21 ar  
     3     1    22 1   
     4     2     3 ar  
     5     2    30 1   
     6     3    23 ar  
     7     3    24 1   
     8     4    13 ar  
     9     4    14 ar  
    10     5    20 1   
    11     5    21 ar  
    12     5    23 ar  
    13     6     7 1   
    14     6    20 1   
    15     6    31 1   
    16     6    32 1   
    17     7     8 1   
    18     7    33 1   
    19     7    34 1   
    20     8     9 1   
    21     8    35 1   
    22     8    36 1   
    23     9    10 1   
    24     9    20 1   
    25     9    37 1   
    26    10    12 2   
    27    10    19 1   
    28    11    12 1   
    29    11    13 1   
    30    11    18 2   
    31    12    38 1   
    32    13    15 ar  
    33    14    17 ar  
    34    14    39 1   
    35    15    16 ar  
    36    15    50 1   
    37    16    17 ar  
    38    17    43 1   
    39    18    19 1   
    40    22    44 1   
    41    22    45 1   
    42    22    46 1   
    43    24    25 1   
    44    24    47 1   
    45    25    26 1   
    46    25    29 2   
    47    26    27 1   
    48    27    28 2   
    49    27    48 1   
    50    28    29 1   
    51    28    49 1   
    52    40    50 1   
    53    41    50 1   
    54    42    50 1   
@<TRIPOS>SUBSTRUCTURE
     1 IDW         1 TEMP              0 ****  ****    0 ROOT
