@<TRIPOS>MOLECULE
IDY
   28    28     1     0     0
SMALL
No Charge or Current Charge


@<TRIPOS>ATOM
      1 S          -27.0580    -8.9860    60.6580 s6         1 IDY       1.498300
      2 C1         -27.9140   -11.5820    62.9290 c6         1 IDY       0.379300
      3 O1         -28.1720   -11.3910    64.3520 os         1 IDY      -0.486000
      4 C2         -26.5690   -10.9790    62.3410 c6         1 IDY       0.189300
      5 O2         -26.8120   -10.5800    60.9640 os         1 IDY      -0.566700
      6 C3         -25.3880   -12.0190    62.3110 c6         1 IDY       0.144300
      7 O3         -24.7790   -12.2200    63.6020 oh         1 IDY      -0.680000
      8 C4         -25.8810   -13.3710    61.7050 c6         1 IDY       0.149300
      9 O4         -26.2840   -13.1640    60.3400 oh         1 IDY      -0.745000
     10 C5         -27.0670   -13.8960    62.5640 c6         1 IDY      -0.002700
     11 O5         -28.1810   -12.9480    62.5020 os         1 IDY      -0.445000
     12 C6         -27.4410   -15.3610    62.1410 c          1 IDY       0.733000
     13 C7         -27.2100   -11.7780    65.3460 c3         1 IDY       0.151900
     14 O6A        -27.0610   -16.2350    62.9120 o          1 IDY      -0.722500
     15 O6B        -28.4950   -15.5240    61.5350 o          1 IDY      -0.722500
     16 OS1        -27.3900    -8.9530    59.2280 o          1 IDY      -0.720200
     17 OS2        -25.7750    -8.3580    61.0010 o          1 IDY      -0.720200
     18 OS3        -28.1660    -8.6210    61.5510 o          1 IDY      -0.720200
     19 H2         -26.2600   -10.1080    62.9370 h1         1 IDY       0.056700
     20 H3         -24.6210   -11.6130    61.6340 h1         1 IDY       0.060700
     21 HO3        -23.9830   -12.7780    63.4590 ho         1 IDY       0.424000
     22 H4         -25.0610   -14.1030    61.7390 h1         1 IDY      -0.012300
     23 HO4        -26.6480   -12.2360    60.3290 ho         1 IDY       0.565000
     24 H5         -26.7340   -13.9710    63.6050 h1         1 IDY       0.022700
     25 H7         -27.6310   -11.6210    66.3470 h1         1 IDY       0.018700
     26 H7A        -26.9420   -12.8360    65.2700 h1         1 IDY       0.018700
     27 H7B        -26.3070   -11.1610    65.2780 h1         1 IDY       0.018700
     28 H1         -28.6970   -10.9810    62.4440 h2         1 IDY       0.111700
@<TRIPOS>BOND
     1     1     5 1   
     2     1    16 1   
     3     1    17 1   
     4     1    18 1   
     5     2     3 1   
     6     2     4 1   
     7     2    11 1   
     8     2    28 1   
     9     3    13 1   
    10     4     5 1   
    11     4     6 1   
    12     4    19 1   
    13     6     7 1   
    14     6     8 1   
    15     6    20 1   
    16     7    21 1   
    17     8     9 1   
    18     8    10 1   
    19     8    22 1   
    20     9    23 1   
    21    10    11 1   
    22    10    12 1   
    23    10    24 1   
    24    12    14 1   
    25    12    15 1   
    26    13    25 1   
    27    13    26 1   
    28    13    27 1   
@<TRIPOS>SUBSTRUCTURE
     1 IDY         1 TEMP              0 ****  ****    0 ROOT
