@<TRIPOS>MOLECULE
IDY
   28    28     1     0     0
SMALL
bcc


@<TRIPOS>ATOM
      1 S          -26.9570    -8.7950    60.8590 s6         1 IDY       1.498300
      2 C1         -27.8730   -11.5620    62.9250 c6         1 IDY       0.332900
      3 O1         -28.0670   -11.2130    64.2660 os         1 IDY      -0.439600
      4 C2         -26.5860   -10.9600    62.3010 c6         1 IDY       0.166100
      5 O2         -26.9400   -10.4340    61.0240 os         1 IDY      -0.543500
      6 C3         -25.4090   -11.9180    62.0930 c6         1 IDY       0.121100
      7 O3         -24.6800   -11.9480    63.3010 oh         1 IDY      -0.617800
      8 C4         -25.8780   -13.3180    61.6990 c6         1 IDY       0.126100
      9 O4         -26.3690   -13.2860    60.3900 oh         1 IDY      -0.622800
     10 C5         -26.9310   -13.7980    62.6890 c6         1 IDY      -0.025900
     11 O5         -28.0560   -12.9230    62.6870 os         1 IDY      -0.398600
     12 C6         -27.5070   -15.1890    62.3270 c          1 IDY       0.943600
     13 C7         -27.3330   -11.8830    65.2680 c3         1 IDY       0.128700
     14 O6A        -27.7450   -15.9660    63.2580 o          1 IDY      -0.827800
     15 O6B        -27.7010   -15.3990    61.1010 o          1 IDY      -0.827800
     16 OS1        -27.3670    -8.6690    59.4640 o          1 IDY      -0.720200
     17 OS2        -25.5860    -8.3600    61.1390 o          1 IDY      -0.720200
     18 OS3        -27.9360    -8.3090    61.8370 o          1 IDY      -0.720200
     19 H2         -26.2430   -10.1580    62.9640 h1         1 IDY       0.056700
     20 H3         -24.7930   -11.5050    61.2830 h1         1 IDY       0.060700
     21 HO3        -23.9900   -12.6150    63.2270 ho         1 IDY       0.385000
     22 H4         -25.0140   -14.0030    61.7850 h1         1 IDY      -0.012300
     23 HO4        -26.9440   -14.0870    60.3460 ho         1 IDY       0.466000
     24 H5         -26.4750   -13.8580    63.6820 h1         1 IDY       0.022700
     25 H7         -27.5430   -11.3680    66.2060 h1         1 IDY       0.018700
     26 H7A        -27.6450   -12.9250    65.3860 h1         1 IDY       0.018700
     27 H7B        -26.2550   -11.8590    65.0980 h1         1 IDY       0.018700
     28 H1         -28.7050   -11.0670    62.4190 h2         1 IDY       0.111700
@<TRIPOS>BOND
     1     1     5 1   
     2     1    16 1   
     3     1    17 1   
     4     1    18 1   
     5     2     3 1   
     6     2     4 1   
     7     2    11 1   
     8     2    28 1   
     9     3    13 1   
    10     4     5 1   
    11     4     6 1   
    12     4    19 1   
    13     6     7 1   
    14     6     8 1   
    15     6    20 1   
    16     7    21 1   
    17     8     9 1   
    18     8    10 1   
    19     8    22 1   
    20     9    23 1   
    21    10    11 1   
    22    10    12 1   
    23    10    24 1   
    24    12    14 1   
    25    12    15 1   
    26    13    25 1   
    27    13    26 1   
    28    13    27 1   
@<TRIPOS>SUBSTRUCTURE
     1 IDY         1 TEMP              0 ****  ****    0 ROOT
