@<TRIPOS>MOLECULE
IDZ
   28    31     1     0     0
SMALL
abcg2


@<TRIPOS>ATOM
      1 C1          -4.4220    -0.1110     0.0090 ca         1 IDZ      -0.136000
      2 C2          -4.5740     1.2560    -0.0030 ca         1 IDZ      -0.068000
      3 C3          -3.4640     2.1270    -0.0160 ca         1 IDZ      -0.151000
      4 C4          -2.1750     1.6450    -0.0180 ca         1 IDZ      -0.017000
      5 C5          -1.9920     0.2560    -0.0060 ca         1 IDZ      -0.190900
      6 C6          -0.8840    -0.6390    -0.0030 cc         1 IDZ       0.330600
      7 C7           0.5270    -0.3270    -0.0110 cc         1 IDZ       0.411500
      8 N8           1.4800    -1.2960    -0.0090 na         1 IDZ      -0.296600
      9 C9           2.6960    -0.6700    -0.0180 ca         1 IDZ      -0.077200
     10 C10          4.0020    -1.1450    -0.0210 ca         1 IDZ      -0.115000
     11 C11          5.0080    -0.1950    -0.0310 ca         1 IDZ      -0.093000
     12 C12          4.7210     1.1790    -0.0390 ca         1 IDZ      -0.136000
     13 C13          3.4190     1.6440    -0.0370 ca         1 IDZ      -0.049000
     14 C14          2.3890     0.7030    -0.0260 ca         1 IDZ       0.068400
     15 N16         -2.6180    -1.8590     0.0150 na         1 IDZ      -0.046400
     16 C17         -3.1110    -0.5960     0.0060 ca         1 IDZ      -0.047200
     17 NAL          1.0280     0.8810    -0.0210 nd         1 IDZ      -0.571100
     18 NAI         -1.2950    -1.8880     0.0100 nd         1 IDZ      -0.530100
     19 H1          -5.2740    -0.7780     0.0190 ha         1 IDZ       0.120000
     20 H2          -5.5710     1.6770    -0.0030 ha         1 IDZ       0.114000
     21 H3          -3.6360     3.1950    -0.0260 ha         1 IDZ       0.117000
     22 H4          -1.3260     2.3140    -0.0270 ha         1 IDZ       0.144000
     23 H8           1.3100    -2.2900     0.0030 hn         1 IDZ       0.370000
     24 H10          4.2240    -2.2040    -0.0150 ha         1 IDZ       0.117000
     25 H11          6.0410    -0.5180    -0.0330 ha         1 IDZ       0.112000
     26 H12          5.5390     1.8880    -0.0470 ha         1 IDZ       0.113000
     27 H13          3.2010     2.7050    -0.0430 ha         1 IDZ       0.127000
     28 H16         -3.1350    -2.7240     0.0190 hn         1 IDZ       0.379000
@<TRIPOS>BOND
     1     1     2 ar  
     2     1    16 ar  
     3     1    19 1   
     4     2     3 ar  
     5     2    20 1   
     6     3     4 ar  
     7     3    21 1   
     8     4     5 ar  
     9     4    22 1   
    10     5     6 1   
    11     5    16 ar  
    12     6     7 1   
    13     6    18 2   
    14     7     8 1   
    15     7    17 2   
    16     8     9 1   
    17     8    23 1   
    18     9    10 ar  
    19     9    14 ar  
    20    10    11 ar  
    21    10    24 1   
    22    11    12 ar  
    23    11    25 1   
    24    12    13 ar  
    25    12    26 1   
    26    13    14 ar  
    27    13    27 1   
    28    14    17 1   
    29    15    16 1   
    30    15    18 1   
    31    15    28 1   
@<TRIPOS>SUBSTRUCTURE
     1 IDZ         1 TEMP              0 ****  ****    0 ROOT
