@<TRIPOS>MOLECULE
IDZ
   28    31     1     0     0
SMALL
No Charge or Current Charge


@<TRIPOS>ATOM
      1 C1          -4.4440    -0.0990     0.0070 ca         1 IDZ      -0.136000
      2 C2          -4.5880     1.3050    -0.0040 ca         1 IDZ      -0.068000
      3 C3          -3.4430     2.1380    -0.0150 ca         1 IDZ      -0.151000
      4 C4          -2.1450     1.5790    -0.0160 ca         1 IDZ      -0.017000
      5 C5          -2.0390     0.1780    -0.0050 ca         1 IDZ      -0.190900
      6 C6          -0.8990    -0.7250    -0.0020 cc         1 IDZ       0.330600
      7 C7           0.4980    -0.3100    -0.0110 cc         1 IDZ       0.411500
      8 N8           1.5070    -1.2770    -0.0080 na         1 IDZ      -0.296600
      9 C9           2.6970    -0.6180    -0.0180 ca         1 IDZ      -0.077200
     10 C10          4.0050    -1.1150    -0.0190 ca         1 IDZ      -0.115000
     11 C11          5.0570    -0.1750    -0.0310 ca         1 IDZ      -0.093000
     12 C12          4.7730     1.2120    -0.0400 ca         1 IDZ      -0.136000
     13 C13          3.4350     1.6700    -0.0390 ca         1 IDZ      -0.049000
     14 C14          2.4070     0.7160    -0.0270 ca         1 IDZ       0.068400
     15 N16         -2.7090    -1.9230     0.0140 na         1 IDZ      -0.046400
     16 C17         -3.1430    -0.6180     0.0060 ca         1 IDZ      -0.047200
     17 NAL          1.0320     0.9360    -0.0230 nd         1 IDZ      -0.571100
     18 NAI         -1.3120    -2.0140     0.0090 nd         1 IDZ      -0.530100
     19 H1          -5.3140    -0.7520     0.0150 ha         1 IDZ       0.120000
     20 H2          -5.5810     1.7480    -0.0030 ha         1 IDZ       0.114000
     21 H3          -3.5630     3.2190    -0.0230 ha         1 IDZ       0.117000
     22 H4          -1.2680     2.2230    -0.0240 ha         1 IDZ       0.144000
     23 H8           1.3550    -2.2770     0.0010 hn         1 IDZ       0.370000
     24 H10          4.2060    -2.1840    -0.0120 ha         1 IDZ       0.117000
     25 H11          6.0900    -0.5170    -0.0320 ha         1 IDZ       0.112000
     26 H12          5.5890     1.9320    -0.0490 ha         1 IDZ       0.113000
     27 H13          3.2070     2.7320    -0.0460 ha         1 IDZ       0.127000
     28 H16         -3.3010    -2.7540     0.0230 hn         1 IDZ       0.379000
@<TRIPOS>BOND
     1     1     2 ar  
     2     1    16 ar  
     3     1    19 1   
     4     2     3 ar  
     5     2    20 1   
     6     3     4 ar  
     7     3    21 1   
     8     4     5 ar  
     9     4    22 1   
    10     5     6 1   
    11     5    16 ar  
    12     6     7 1   
    13     6    18 2   
    14     7     8 1   
    15     7    17 2   
    16     8     9 1   
    17     8    23 1   
    18     9    10 ar  
    19     9    14 ar  
    20    10    11 ar  
    21    10    24 1   
    22    11    12 ar  
    23    11    25 1   
    24    12    13 ar  
    25    12    26 1   
    26    13    14 ar  
    27    13    27 1   
    28    14    17 1   
    29    15    16 1   
    30    15    18 1   
    31    15    28 1   
@<TRIPOS>SUBSTRUCTURE
     1 IDZ         1 TEMP              0 ****  ****    0 ROOT
