@<TRIPOS>MOLECULE
IE0
   44    47     1     0     0
SMALL
No Charge or Current Charge


@<TRIPOS>ATOM
      1 C1          41.4160    -1.7230   -17.8110 ca         1 IE0      -0.136800
      2 C2          40.4060    -1.3580   -16.9090 ca         1 IE0      -0.025300
      3 C3          40.7500    -1.4560   -15.5460 ca         1 IE0      -0.188000
      4 C8          42.6810    -2.1880   -19.7000 cc         1 IE0      -0.147100
      5 C9          41.4460    -1.7550   -19.2540 cd         1 IE0      -0.241200
      6 C10         39.0290    -0.8750   -17.3480 c3         1 IE0       0.163300
      7 C12         39.7050     1.6590   -17.0240 c5         1 IE0       0.024700
      8 C13         38.8760     2.8610   -16.4920 c          1 IE0       0.564000
      9 C15         37.5280     0.9540   -16.4870 c          1 IE0       0.621000
     10 C16         36.5210     3.0860   -15.6720 ca         1 IE0       0.006000
     11 C19         34.3640     4.6060   -14.6250 ca         1 IE0      -0.147000
     12 C20         34.6870     3.3470   -14.0730 ca         1 IE0      -0.038500
     13 C21         35.7550     2.5970   -14.5950 ca         1 IE0      -0.113500
     14 O28         36.5430     0.2440   -16.3490 o          1 IE0      -0.523000
     15 F24         32.8510     4.4130   -11.6560 f          1 IE0      -0.097000
     16 C23         32.0880     4.6820   -12.7390 c3         1 IE0       0.421000
     17 F25         31.0160     5.3770   -12.2990 f          1 IE0      -0.097000
     18 F26         31.6230     3.5060   -13.2190 f          1 IE0      -0.097000
     19 S22         33.0150     5.6430   -14.0260 ss         1 IE0      -0.185000
     20 C18         35.1300     5.0940   -15.6990 ca         1 IE0      -0.038500
     21 C17         36.1980     4.3430   -16.2190 ca         1 IE0      -0.113500
     22 N14         37.6160     2.3140   -16.2030 n          1 IE0      -0.226000
     23 O27         39.2200     4.0260   -16.3330 o          1 IE0      -0.483000
     24 C29         40.2700     1.9280   -18.4380 c3         1 IE0      -0.096100
     25 N11         38.7570     0.5300   -16.9770 n          1 IE0      -0.421800
     26 C4          42.0410    -1.8970   -15.1820 ca         1 IE0       0.360900
     27 N5          42.9940    -2.2420   -16.0860 nb         1 IE0      -0.675000
     28 C6          42.6560    -2.1450   -17.3840 ca         1 IE0       0.369500
     29 N7          43.4080    -2.4210   -18.5110 na         1 IE0      -0.323400
     30 H1          40.0340    -1.1920   -14.7730 ha         1 IE0       0.120000
     31 H2          43.0820    -2.3400   -20.7010 h4         1 IE0       0.218000
     32 H3          40.6240    -1.4790   -19.9130 ha         1 IE0       0.207000
     33 H4          38.2750    -1.5300   -16.8930 h1         1 IE0       0.077700
     34 H5          38.9250    -0.9740   -18.4350 h1         1 IE0       0.077700
     35 H6          40.5360     1.4970   -16.3240 h1         1 IE0       0.091700
     36 H7          34.1290     2.9320   -13.2400 ha         1 IE0       0.136000
     37 H8          35.9920     1.6350   -14.1470 ha         1 IE0       0.133500
     38 H9          34.8940     6.0620   -16.1370 ha         1 IE0       0.136000
     39 H10         36.7650     4.7410   -17.0570 ha         1 IE0       0.133500
     40 H11         40.9180     2.8130   -18.4410 hc         1 IE0       0.056367
     41 H12         40.8670     1.0810   -18.7930 hc         1 IE0       0.056367
     42 H13         39.4640     2.0990   -19.1620 hc         1 IE0       0.056367
     43 H14         42.3200    -1.9770   -14.1320 h4         1 IE0       0.021100
     44 H15         44.3640    -2.7510   -18.4650 hn         1 IE0       0.363000
@<TRIPOS>BOND
     1     1     2 ar  
     2     1     5 1   
     3     1    28 ar  
     4     2     3 ar  
     5     2     6 1   
     6     3    26 ar  
     7     3    30 1   
     8     4     5 2   
     9     4    29 1   
    10     4    31 1   
    11     5    32 1   
    12     6    25 1   
    13     6    33 1   
    14     6    34 1   
    15     7     8 1   
    16     7    24 1   
    17     7    25 1   
    18     7    35 1   
    19     8    22 1   
    20     8    23 2   
    21     9    14 2   
    22     9    22 1   
    23     9    25 1   
    24    10    13 ar  
    25    10    21 ar  
    26    10    22 1   
    27    11    12 ar  
    28    11    19 1   
    29    11    20 ar  
    30    12    13 ar  
    31    12    36 1   
    32    13    37 1   
    33    15    16 1   
    34    16    17 1   
    35    16    18 1   
    36    16    19 1   
    37    20    21 ar  
    38    20    38 1   
    39    21    39 1   
    40    24    40 1   
    41    24    41 1   
    42    24    42 1   
    43    26    27 ar  
    44    26    43 1   
    45    27    28 ar  
    46    28    29 1   
    47    29    44 1   
@<TRIPOS>SUBSTRUCTURE
     1 IE0         1 TEMP              0 ****  ****    0 ROOT
