@<TRIPOS>MOLECULE
IE0
   44    47     1     0     0
SMALL
abcg2


@<TRIPOS>ATOM
      1 C1          41.1810    -1.9240   -17.6450 ca         1 IE0      -0.136800
      2 C2          40.5050    -0.8160   -17.1250 ca         1 IE0      -0.025300
      3 C3          40.8940    -0.3870   -15.8670 ca         1 IE0      -0.188000
      4 C8          42.0640    -3.6670   -18.7340 cc         1 IE0      -0.147100
      5 C9          41.1180    -2.6890   -18.8490 cd         1 IE0      -0.241200
      6 C10         39.4050    -0.1730   -17.9270 c3         1 IE0       0.163300
      7 C12         39.6890     2.3310   -17.5880 c5         1 IE0       0.024700
      8 C13         38.8490     3.3070   -16.7900 c          1 IE0       0.564000
      9 C15         37.8610     1.2360   -16.6460 c          1 IE0       0.621000
     10 C16         36.7750     3.1180   -15.4590 ca         1 IE0       0.006000
     11 C19         34.7690     4.1470   -13.8600 ca         1 IE0      -0.147000
     12 C20         35.5560     3.1000   -13.3930 ca         1 IE0      -0.038500
     13 C21         36.5670     2.5900   -14.1910 ca         1 IE0      -0.113500
     14 O28         37.0580     0.3960   -16.3180 o          1 IE0      -0.523000
     15 F24         32.3180     2.5290   -13.1880 f          1 IE0      -0.097000
     16 C23         32.1200     3.8340   -13.3660 c3         1 IE0       0.421000
     17 F25         31.0530     4.1930   -12.6560 f          1 IE0      -0.097000
     18 F26         31.8400     4.0080   -14.6570 f          1 IE0      -0.097000
     19 S22         33.5100     4.8320   -12.8140 ss         1 IE0      -0.185000
     20 C18         34.9930     4.6890   -15.1200 ca         1 IE0      -0.038500
     21 C17         35.9920     4.1660   -15.9260 ca         1 IE0      -0.113500
     22 N14         37.7980     2.5900   -16.2750 n          1 IE0      -0.226000
     23 O27         39.0520     4.4830   -16.6370 o          1 IE0      -0.483000
     24 C29         39.8400     2.7720   -19.0360 c3         1 IE0      -0.096100
     25 N11         38.9580     1.0930   -17.4180 n          1 IE0      -0.421800
     26 C4          41.9190    -1.0480   -15.1790 ca         1 IE0       0.360900
     27 N5          42.5770    -2.0970   -15.6440 nb         1 IE0      -0.675000
     28 C6          42.1930    -2.5010   -16.8460 ca         1 IE0       0.369500
     29 N7          42.7090    -3.5540   -17.5340 na         1 IE0      -0.323400
     30 H1          40.4200     0.4610   -15.3900 ha         1 IE0       0.120000
     31 H2          42.3310    -4.4480   -19.4270 h4         1 IE0       0.218000
     32 H3          40.4610    -2.5420   -19.6910 ha         1 IE0       0.207000
     33 H4          38.5480    -0.8500   -17.9710 h1         1 IE0       0.077700
     34 H5          39.7350    -0.0460   -18.9600 h1         1 IE0       0.077700
     35 H6          40.6780     2.2640   -17.1190 h1         1 IE0       0.091700
     36 H7          35.3910     2.6910   -12.4060 ha         1 IE0       0.136000
     37 H8          37.1910     1.7890   -13.8210 ha         1 IE0       0.133500
     38 H9          34.3900     5.5120   -15.4770 ha         1 IE0       0.136000
     39 H10         36.1500     4.5690   -16.9170 ha         1 IE0       0.133500
     40 H11         40.3290     3.7430   -19.0750 hc         1 IE0       0.056367
     41 H12         40.4610     2.0690   -19.5910 hc         1 IE0       0.056367
     42 H13         38.8700     2.8450   -19.5280 hc         1 IE0       0.056367
     43 H14         42.2100    -0.6930   -14.1970 h4         1 IE0       0.021100
     44 H15         43.4500    -4.1550   -17.2100 hn         1 IE0       0.363000
@<TRIPOS>BOND
     1     1     2 ar  
     2     1     5 1   
     3     1    28 ar  
     4     2     3 ar  
     5     2     6 1   
     6     3    26 ar  
     7     3    30 1   
     8     4     5 2   
     9     4    29 1   
    10     4    31 1   
    11     5    32 1   
    12     6    25 1   
    13     6    33 1   
    14     6    34 1   
    15     7     8 1   
    16     7    24 1   
    17     7    25 1   
    18     7    35 1   
    19     8    22 1   
    20     8    23 2   
    21     9    14 2   
    22     9    22 1   
    23     9    25 1   
    24    10    13 ar  
    25    10    21 ar  
    26    10    22 1   
    27    11    12 ar  
    28    11    19 1   
    29    11    20 ar  
    30    12    13 ar  
    31    12    36 1   
    32    13    37 1   
    33    15    16 1   
    34    16    17 1   
    35    16    18 1   
    36    16    19 1   
    37    20    21 ar  
    38    20    38 1   
    39    21    39 1   
    40    24    40 1   
    41    24    41 1   
    42    24    42 1   
    43    26    27 ar  
    44    26    43 1   
    45    27    28 ar  
    46    28    29 1   
    47    29    44 1   
@<TRIPOS>SUBSTRUCTURE
     1 IE0         1 TEMP              0 ****  ****    0 ROOT
