@<TRIPOS>MOLECULE
IE2
   38    41     1     0     0
SMALL
No Charge or Current Charge


@<TRIPOS>ATOM
      1 CAA         -2.9050     4.5210    -0.6420 c3         1 IE2      -0.147400
      2 NAB          5.5470    -0.4730     1.2340 n8         1 IE2      -1.002100
      3 OAC          4.6220     1.8070     1.3440 o          1 IE2      -0.542000
      4 OAD          5.3550     0.7380    -0.8750 o          1 IE2      -0.542000
      5 CAE         -1.2870     2.5750    -0.8970 ca         1 IE2      -0.168000
      6 CAF          0.8860    -0.6130     1.1800 ca         1 IE2      -0.123500
      7 CAG          1.5100    -1.4620    -1.0140 ca         1 IE2      -0.123500
      8 CAH          2.1440    -0.0000     1.3050 ca         1 IE2      -0.004000
      9 CAI          2.7710    -0.8520    -0.8950 ca         1 IE2      -0.004000
     10 CAJ         -1.0080     1.2050    -0.7950 ca         1 IE2      -0.046000
     11 CAK         -2.2590    -3.3020     0.1070 cc         1 IE2       0.267900
     12 CAL         -4.3050    -1.7380    -0.0640 c6         1 IE2       0.127900
     13 NAM         -0.9410    -3.2940     0.0940 nd         1 IE2      -0.500800
     14 NAN         -3.5410     2.2340    -0.1110 nb         1 IE2      -0.662000
     15 SAO         -4.6380    -0.0650     0.6370 ss         1 IE2      -0.340300
     16 CAP         -2.5590     3.0480    -0.5430 ca         1 IE2       0.379300
     17 CAQ          0.5590    -1.3370     0.0170 ca         1 IE2       0.065800
     18 CAR          3.0900    -0.1150     0.2650 ca         1 IE2      -0.269500
     19 CAS         -2.8360    -2.0270    -0.0390 cc         1 IE2      -0.196300
     20 CAT         -2.0220     0.3370    -0.3350 ca         1 IE2      -0.092000
     21 CAU         -3.2820     0.9120    -0.0170 ca         1 IE2       0.486300
     22 CAV         -1.8340    -1.1260    -0.2010 cd         1 IE2      -0.066000
     23 NAW         -0.6900    -1.9450    -0.1090 na         1 IE2       0.220000
     24 SAX          4.6970     0.6690     0.4270 sy         1 IE2       1.128600
     25 HAA         -3.3890     4.7410    -1.6000 hc         1 IE2       0.055700
     26 HAAA        -3.5870     4.8270     0.1600 hc         1 IE2       0.055700
     27 HAAB        -2.0070     5.1450    -0.5680 hc         1 IE2       0.055700
     28 HNAB         5.0280    -1.3210     1.0230 hn         1 IE2       0.475000
     29 HNAA         6.3770    -0.5440     0.6490 hn         1 IE2       0.475000
     30 HAE         -0.5270     3.2650    -1.2550 ha         1 IE2       0.130000
     31 HAF          0.1600    -0.5220     1.9850 ha         1 IE2       0.141500
     32 HAG          1.2680    -2.0290    -1.9100 ha         1 IE2       0.141500
     33 HAH          2.3790     0.5600     2.2090 ha         1 IE2       0.143500
     34 HAI          3.4900    -0.9540    -1.7070 ha         1 IE2       0.143500
     35 HAJ         -0.0320     0.8440    -1.1020 ha         1 IE2       0.125000
     36 HAK         -2.7750    -4.2440     0.2400 h4         1 IE2       0.045100
     37 HAL         -4.8780    -2.4790     0.5130 h1         1 IE2       0.082200
     38 HALA        -4.6780    -1.7510    -1.0980 h1         1 IE2       0.082200
@<TRIPOS>BOND
     1     1    16 1   
     2     1    25 1   
     3     1    26 1   
     4     1    27 1   
     5     2    24 1   
     6     2    28 1   
     7     2    29 1   
     8     3    24 2   
     9     4    24 2   
    10     5    10 ar  
    11     5    16 ar  
    12     5    30 1   
    13     6     8 ar  
    14     6    17 ar  
    15     6    31 1   
    16     7     9 ar  
    17     7    17 ar  
    18     7    32 1   
    19     8    18 ar  
    20     8    33 1   
    21     9    18 ar  
    22     9    34 1   
    23    10    20 ar  
    24    10    35 1   
    25    11    13 2   
    26    11    19 1   
    27    11    36 1   
    28    12    15 1   
    29    12    19 1   
    30    12    37 1   
    31    12    38 1   
    32    13    23 1   
    33    14    16 ar  
    34    14    21 ar  
    35    15    21 1   
    36    17    23 1   
    37    18    24 1   
    38    19    22 2   
    39    20    21 ar  
    40    20    22 1   
    41    22    23 1   
@<TRIPOS>SUBSTRUCTURE
     1 IE2         1 TEMP              0 ****  ****    0 ROOT
