@<TRIPOS>MOLECULE
IE2
   38    41     1     0     0
SMALL
abcg2


@<TRIPOS>ATOM
      1 CAA         -3.0730     4.5030    -0.3570 c3         1 IE2      -0.147400
      2 NAB          5.4260    -0.5310     1.4960 n8         1 IE2      -1.002100
      3 OAC          4.7930     1.7380     0.7150 o          1 IE2      -0.542000
      4 OAD          5.5180     0.0860    -1.0190 o          1 IE2      -0.542000
      5 CAE         -1.5060     2.6170    -0.9510 ca         1 IE2      -0.168000
      6 CAF          0.9290    -0.2790     0.8860 ca         1 IE2      -0.123500
      7 CAG          1.6030    -1.7210    -0.9330 ca         1 IE2      -0.123500
      8 CAH          2.2180     0.2130     0.9780 ca         1 IE2      -0.004000
      9 CAI          2.8970    -1.2340    -0.8380 ca         1 IE2      -0.004000
     10 CAJ         -1.2030     1.2670    -0.9230 ca         1 IE2      -0.046000
     11 CAK         -2.1820    -3.2330    -0.0490 cc         1 IE2       0.267900
     12 CAL         -4.3040    -1.6640    -0.1160 c6         1 IE2       0.127900
     13 NAM         -0.8770    -3.0590    -0.0890 nd         1 IE2      -0.500800
     14 NAN         -3.5890     2.1920     0.1000 nb         1 IE2      -0.662000
     15 SAO         -4.5790    -0.1150     0.8030 ss         1 IE2      -0.340300
     16 CAP         -2.7030     3.0550    -0.3960 ca         1 IE2       0.379300
     17 CAQ          0.6260    -1.2360    -0.0760 ca         1 IE2       0.065800
     18 CAR          3.1920    -0.2700     0.1140 ca         1 IE2      -0.269500
     19 CAS         -2.8590    -2.0050    -0.1060 cc         1 IE2      -0.196300
     20 CAT         -2.0900     0.3690    -0.3390 ca         1 IE2      -0.092000
     21 CAU         -3.3110     0.9030     0.1120 ca         1 IE2       0.486300
     22 CAV         -1.8660    -1.0580    -0.1990 cd         1 IE2      -0.066000
     23 NAW         -0.6890    -1.7380    -0.1730 na         1 IE2       0.220000
     24 SAX          4.8410     0.3640     0.2390 sy         1 IE2       1.128600
     25 HAA         -3.9350     4.6970    -0.9970 hc         1 IE2       0.055700
     26 HAAA        -3.3470     4.8040     0.6540 hc         1 IE2       0.055700
     27 HAAB        -2.2530     5.1350    -0.6940 hc         1 IE2       0.055700
     28 HNAB         5.6440    -1.4860     1.2290 hn         1 IE2       0.475000
     29 HNAA         6.2400    -0.0920     1.9170 hn         1 IE2       0.475000
     30 HAE         -0.8170     3.3210    -1.3960 ha         1 IE2       0.130000
     31 HAF          0.1680     0.0780     1.5670 ha         1 IE2       0.141500
     32 HAG          1.3580    -2.4640    -1.6790 ha         1 IE2       0.141500
     33 HAH          2.4510     0.9580     1.7260 ha         1 IE2       0.143500
     34 HAI          3.6550    -1.6040    -1.5140 ha         1 IE2       0.143500
     35 HAJ         -0.2770     0.9240    -1.3630 ha         1 IE2       0.125000
     36 HAK         -2.5990    -4.2260     0.0230 h4         1 IE2       0.045100
     37 HAL         -4.9030    -2.4210     0.3890 h1         1 IE2       0.082200
     38 HALA        -4.6920    -1.5530    -1.1310 h1         1 IE2       0.082200
@<TRIPOS>BOND
     1     1    16 1   
     2     1    25 1   
     3     1    26 1   
     4     1    27 1   
     5     2    24 1   
     6     2    28 1   
     7     2    29 1   
     8     3    24 2   
     9     4    24 2   
    10     5    10 ar  
    11     5    16 ar  
    12     5    30 1   
    13     6     8 ar  
    14     6    17 ar  
    15     6    31 1   
    16     7     9 ar  
    17     7    17 ar  
    18     7    32 1   
    19     8    18 ar  
    20     8    33 1   
    21     9    18 ar  
    22     9    34 1   
    23    10    20 ar  
    24    10    35 1   
    25    11    13 2   
    26    11    19 1   
    27    11    36 1   
    28    12    15 1   
    29    12    19 1   
    30    12    37 1   
    31    12    38 1   
    32    13    23 1   
    33    14    16 ar  
    34    14    21 ar  
    35    15    21 1   
    36    17    23 1   
    37    18    24 1   
    38    19    22 2   
    39    20    21 ar  
    40    20    22 1   
    41    22    23 1   
@<TRIPOS>SUBSTRUCTURE
     1 IE2         1 TEMP              0 ****  ****    0 ROOT
