@<TRIPOS>MOLECULE
IE3
   62    64     1     0     0
SMALL
bcc


@<TRIPOS>ATOM
      1 S1          25.6160     8.2110   100.3630 ss         1 IE3      -0.193000
      2 C10         24.6600     7.4050   101.6110 ca         1 IE3      -0.030100
      3 C11         25.3610     6.7740   102.6550 ca         1 IE3       0.185100
      4 C12         24.6530     6.1390   103.6710 ca         1 IE3      -0.234000
      5 C13         23.2670     6.1150   103.6450 ca         1 IE3      -0.046000
      6 C14         22.5640     6.7200   102.6090 ca         1 IE3      -0.204600
      7 C15         23.2800     7.3590   101.5930 ca         1 IE3      -0.034000
      8 O7          26.6920     6.8390   102.5840 os         1 IE3      -0.303900
      9 C16         27.4680     6.2300   103.6020 c3         1 IE3       0.123700
     10 C17         21.0840     6.7920   102.5710 c          1 IE3       0.593300
     11 O8          20.5290     7.7200   102.0130 o          1 IE3      -0.510100
     12 C18         20.2740     5.7280   103.2250 ca         1 IE3      -0.094600
     13 C19         20.6980     4.4040   103.2190 ca         1 IE3      -0.207000
     14 C20         19.8820     3.4200   103.7710 ca         1 IE3       0.145600
     15 C21         18.6500     3.7700   104.3320 ca         1 IE3       0.044100
     16 C22         18.2370     5.1080   104.3400 ca         1 IE3       0.145600
     17 C23         19.0420     6.0840   103.7660 ca         1 IE3      -0.207000
     18 O11         17.0470     5.3440   104.9140 os         1 IE3      -0.300900
     19 O10         17.8420     2.8110   104.8450 os         1 IE3      -0.305900
     20 O9          20.1850     2.1120   103.8040 os         1 IE3      -0.300900
     21 C26         16.5520     6.6690   104.9180 c3         1 IE3       0.121200
     22 C25         18.0640     2.5230   106.2210 c3         1 IE3       0.126700
     23 C24         21.4270     1.6950   103.2720 c3         1 IE3       0.121200
     24 C1          24.5160     9.5600    99.8720 c6         1 IE3       0.176200
     25 O5          23.6170     9.0870    98.9100 os         1 IE3      -0.367600
     26 C5          22.6750    10.0720    98.5190 c6         1 IE3       0.135100
     27 C6          21.6420     9.4110    97.6320 c3         1 IE3       0.150400
     28 O6          20.8760     8.5350    98.4260 oh         1 IE3      -0.590800
     29 C4          23.3800    11.2430    97.8510 c6         1 IE3       0.128100
     30 O4          23.9700    10.7950    96.6570 oh         1 IE3      -0.585800
     31 C3          24.4110    11.8090    98.8240 c6         1 IE3       0.118100
     32 O3          25.0960    12.8450    98.1690 oh         1 IE3      -0.605800
     33 C2          25.3590    10.7160    99.3160 c6         1 IE3       0.095100
     34 O2          26.1710    11.2900   100.3070 oh         1 IE3      -0.602800
     35 H1          25.1690     5.6690   104.4970 ha         1 IE3       0.139000
     36 H2          22.7430     5.6350   104.4610 ha         1 IE3       0.140000
     37 H3          22.7360     7.8010   100.7690 ha         1 IE3       0.178000
     38 H4          28.5080     6.4120   103.3440 h1         1 IE3       0.045367
     39 H5          27.2640     6.6670   104.5820 h1         1 IE3       0.045367
     40 H6          27.2970     5.1520   103.6480 h1         1 IE3       0.045367
     41 H7          21.6420     4.1430   102.7620 ha         1 IE3       0.151000
     42 H8          18.7360     7.1210   103.7460 ha         1 IE3       0.151000
     43 H9          15.5890     6.6350   105.4210 h1         1 IE3       0.043367
     44 H10         17.2100     7.3500   105.4630 h1         1 IE3       0.043367
     45 H11         16.4070     7.0520   103.9040 h1         1 IE3       0.043367
     46 H12         17.3400     1.7620   106.5080 h1         1 IE3       0.034033
     47 H13         19.0690     2.1340   106.3950 h1         1 IE3       0.034033
     48 H14         17.9140     3.4050   106.8470 h1         1 IE3       0.034033
     49 H15         21.4770     0.6190   103.4190 h1         1 IE3       0.043367
     50 H16         21.5070     1.9090   102.2030 h1         1 IE3       0.043367
     51 H17         22.2700     2.1610   103.7900 h1         1 IE3       0.043367
     52 H18         23.9890     9.9050   100.7750 h2         1 IE3       0.069700
     53 H19         22.1560    10.4680    99.4070 h1         1 IE3       0.056700
     54 H20         22.1390     8.8870    96.8090 h1         1 IE3       0.037700
     55 H21         21.0220    10.2010    97.1880 h1         1 IE3       0.037700
     56 H22         20.3030     8.0250    97.8470 ho         1 IE3       0.408000
     57 H23         22.6270    12.0230    97.6590 h1         1 IE3       0.049700
     58 H24         24.4630    11.5270    96.2730 ho         1 IE3       0.421000
     59 H25         23.8600    12.1880    99.7000 h1         1 IE3       0.049700
     60 H26         25.8010    13.1620    98.7430 ho         1 IE3       0.429000
     61 H27         25.9490    10.3480    98.4650 h1         1 IE3       0.072700
     62 H28         26.9260    10.7150   100.4690 ho         1 IE3       0.426000
@<TRIPOS>BOND
     1     1     2 1   
     2     1    24 1   
     3     2     3 ar  
     4     2     7 ar  
     5     3     4 ar  
     6     3     8 1   
     7     4     5 ar  
     8     4    35 1   
     9     5     6 ar  
    10     5    36 1   
    11     6     7 ar  
    12     6    10 1   
    13     7    37 1   
    14     8     9 1   
    15     9    38 1   
    16     9    39 1   
    17     9    40 1   
    18    10    11 2   
    19    10    12 1   
    20    12    13 ar  
    21    12    17 ar  
    22    13    14 ar  
    23    13    41 1   
    24    14    15 ar  
    25    14    20 1   
    26    15    16 ar  
    27    15    19 1   
    28    16    17 ar  
    29    16    18 1   
    30    17    42 1   
    31    18    21 1   
    32    19    22 1   
    33    20    23 1   
    34    21    43 1   
    35    21    44 1   
    36    21    45 1   
    37    22    46 1   
    38    22    47 1   
    39    22    48 1   
    40    23    49 1   
    41    23    50 1   
    42    23    51 1   
    43    24    25 1   
    44    24    33 1   
    45    24    52 1   
    46    25    26 1   
    47    26    27 1   
    48    26    29 1   
    49    26    53 1   
    50    27    28 1   
    51    27    54 1   
    52    27    55 1   
    53    28    56 1   
    54    29    30 1   
    55    29    31 1   
    56    29    57 1   
    57    30    58 1   
    58    31    32 1   
    59    31    33 1   
    60    31    59 1   
    61    32    60 1   
    62    33    34 1   
    63    33    61 1   
    64    34    62 1   
@<TRIPOS>SUBSTRUCTURE
     1 IE3         1 TEMP              0 ****  ****    0 ROOT
