@<TRIPOS>MOLECULE
IE3
   62    64     1     0     0
SMALL
No Charge or Current Charge


@<TRIPOS>ATOM
      1 S1          25.7370     9.2180   101.3510 ss         1 IE3      -0.114000
      2 C10         24.7620     8.1560   102.4410 ca         1 IE3      -0.157000
      3 C11         25.4250     7.1700   103.2020 ca         1 IE3       0.185100
      4 C12         24.6840     6.3340   104.0640 ca         1 IE3      -0.216000
      5 C13         23.2920     6.4730   104.1650 ca         1 IE3      -0.028000
      6 C14         22.6180     7.4470   103.4020 ca         1 IE3      -0.204600
      7 C15         23.3610     8.2950   102.5560 ca         1 IE3      -0.016000
      8 O7          26.7980     7.0560   103.0800 os         1 IE3      -0.327100
      9 C16         27.5610     6.0800   103.8110 c3         1 IE3       0.146900
     10 C17         21.1210     7.6220   103.5060 c          1 IE3       0.593300
     11 O8          20.6210     8.7360   103.3880 o          1 IE3      -0.510100
     12 C18         20.2490     6.4050   103.7620 ca         1 IE3      -0.094600
     13 C19         20.6030     5.1340   103.2620 ca         1 IE3      -0.189000
     14 C20         19.7920     3.9980   103.4920 ca         1 IE3       0.145600
     15 C21         18.5790     4.1420   104.2340 ca         1 IE3       0.044100
     16 C22         18.2160     5.4220   104.7170 ca         1 IE3       0.145600
     17 C23         19.0440     6.5390   104.4770 ca         1 IE3      -0.189000
     18 O11         17.0320     5.5430   105.4290 os         1 IE3      -0.324100
     19 O10         17.6980     3.0990   104.5270 os         1 IE3      -0.329100
     20 O9          20.1740     2.7610   102.9950 os         1 IE3      -0.324100
     21 C26         16.5680     6.7960   105.9630 c3         1 IE3       0.144400
     22 C25         17.8820     1.7250   104.1390 c3         1 IE3       0.149900
     23 C24         21.3950     2.5460   102.2640 c3         1 IE3       0.144400
     24 C1          24.5220     9.9600   100.1610 c6         1 IE3       0.247300
     25 O5          23.8090     8.8930    99.4970 os         1 IE3      -0.414000
     26 C5          22.7420     9.3530    98.6280 c6         1 IE3       0.158300
     27 C6          21.9370     8.1150    98.1180 c3         1 IE3       0.173600
     28 O6          21.3470     7.3430    99.1840 oh         1 IE3      -0.713000
     29 C4          23.3180    10.2260    97.4650 c6         1 IE3       0.151300
     30 O4          24.1660     9.4760    96.5710 oh         1 IE3      -0.708000
     31 C3          24.1400    11.3980    98.0840 c6         1 IE3       0.141300
     32 O3          24.7800    12.1670    97.0490 oh         1 IE3      -0.668000
     33 C2          25.2110    10.8740    99.0940 c6         1 IE3       0.118300
     34 O2          25.9030    11.9990    99.6900 oh         1 IE3      -0.725000
     35 H1          25.1690     5.5720   104.6670 ha         1 IE3       0.121000
     36 H2          22.7420     5.8290   104.8490 ha         1 IE3       0.122000
     37 H3          22.8320     9.0550   101.9880 ha         1 IE3       0.160000
     38 H4          28.6260     6.1660   103.5600 h1         1 IE3       0.045367
     39 H5          27.4540     6.2320   104.8930 h1         1 IE3       0.045367
     40 H6          27.2340     5.0630   103.5620 h1         1 IE3       0.045367
     41 H7          21.5140     5.0500   102.6790 ha         1 IE3       0.133000
     42 H8          18.7710     7.5230   104.8470 ha         1 IE3       0.133000
     43 H9          15.6130     6.6550   106.4850 h1         1 IE3       0.043367
     44 H10         17.2900     7.2050   106.6810 h1         1 IE3       0.043367
     45 H11         16.4110     7.5280   105.1610 h1         1 IE3       0.043367
     46 H12         17.0450     1.1170   104.5040 h1         1 IE3       0.034033
     47 H13         17.9150     1.6270   103.0470 h1         1 IE3       0.034033
     48 H14         18.8050     1.3160   104.5690 h1         1 IE3       0.034033
     49 H15         21.4880     1.4880   101.9860 h1         1 IE3       0.043367
     50 H16         21.4090     3.1400   101.3410 h1         1 IE3       0.043367
     51 H17         22.2680     2.8140   102.8730 h1         1 IE3       0.043367
     52 H18         23.8240    10.5650   100.7570 h2         1 IE3       0.069700
     53 H19         22.0520     9.9710    99.2220 h1         1 IE3       0.056700
     54 H20         22.6140     7.4820    97.5270 h1         1 IE3       0.037700
     55 H21         21.1530     8.4750    97.4380 h1         1 IE3       0.037700
     56 H22         20.9350     6.5500    98.7700 ho         1 IE3       0.507000
     57 H23         22.4740    10.6560    96.9050 h1         1 IE3       0.049700
     58 H24         24.7180    10.1640    96.1270 ho         1 IE3       0.520000
     59 H25         23.4400    12.0410    98.6390 h1         1 IE3       0.049700
     60 H26         25.4260    12.7400    97.5260 ho         1 IE3       0.468000
     61 H27         25.9270    10.2470    98.5400 h1         1 IE3       0.072700
     62 H28         26.6620    11.6400   100.2100 ho         1 IE3       0.525000
@<TRIPOS>BOND
     1     1     2 1   
     2     1    24 1   
     3     2     3 ar  
     4     2     7 ar  
     5     3     4 ar  
     6     3     8 1   
     7     4     5 ar  
     8     4    35 1   
     9     5     6 ar  
    10     5    36 1   
    11     6     7 ar  
    12     6    10 1   
    13     7    37 1   
    14     8     9 1   
    15     9    38 1   
    16     9    39 1   
    17     9    40 1   
    18    10    11 2   
    19    10    12 1   
    20    12    13 ar  
    21    12    17 ar  
    22    13    14 ar  
    23    13    41 1   
    24    14    15 ar  
    25    14    20 1   
    26    15    16 ar  
    27    15    19 1   
    28    16    17 ar  
    29    16    18 1   
    30    17    42 1   
    31    18    21 1   
    32    19    22 1   
    33    20    23 1   
    34    21    43 1   
    35    21    44 1   
    36    21    45 1   
    37    22    46 1   
    38    22    47 1   
    39    22    48 1   
    40    23    49 1   
    41    23    50 1   
    42    23    51 1   
    43    24    25 1   
    44    24    33 1   
    45    24    52 1   
    46    25    26 1   
    47    26    27 1   
    48    26    29 1   
    49    26    53 1   
    50    27    28 1   
    51    27    54 1   
    52    27    55 1   
    53    28    56 1   
    54    29    30 1   
    55    29    31 1   
    56    29    57 1   
    57    30    58 1   
    58    31    32 1   
    59    31    33 1   
    60    31    59 1   
    61    32    60 1   
    62    33    34 1   
    63    33    61 1   
    64    34    62 1   
@<TRIPOS>SUBSTRUCTURE
     1 IE3         1 TEMP              0 ****  ****    0 ROOT
