@<TRIPOS>MOLECULE
IE4
   35    37     1     0     0
SMALL
No Charge or Current Charge


@<TRIPOS>ATOM
      1 C20          4.6150    -1.7280     1.3270 cc         1 IE4      -0.200000
      2 C21          3.3720    -1.0920     0.9890 cc         1 IE4       0.017000
      3 C11          0.2560     1.6940    -1.0410 cc         1 IE4      -0.191000
      4 C10         -1.1110     1.6400    -0.6690 cc         1 IE4       0.021000
      5 C19          5.8390    -1.4140     0.7240 cd         1 IE4      -0.075000
      6 C15          3.1800     1.4560    -1.5010 cc         1 IE4       0.063600
      7 C22          3.4360    -0.1330     0.0190 cd         1 IE4      -0.122800
      8 C14          2.4650     0.6990    -0.5780 cd         1 IE4      -0.152400
      9 C12          1.0420     0.8050    -0.3470 cd         1 IE4      -0.053800
     10 C17          4.6450     0.1820    -0.5810 cd         1 IE4      -0.048000
     11 C09         -1.3710     0.7050     0.3020 cd         1 IE4      -0.507500
     12 C04         -4.1150    -1.8240     0.0120 c3         1 IE4       0.196800
     13 C03         -4.5240    -2.5290    -1.3130 c3         1 IE4       0.147800
     14 N18          5.8680    -0.4110    -0.2810 na         1 IE4      -0.045000
     15 N16          4.5370     1.1270    -1.4960 nc         1 IE4      -0.352600
     16 N05         -3.4340    -0.5430    -0.2620 n7         1 IE4      -0.868300
     17 N02         -5.2090    -3.8320    -1.1040 n8         1 IE4      -1.001200
     18 O07         -2.7590    -0.5270     2.1740 o          1 IE4      -0.537000
     19 O08         -3.7660     1.5710     1.0450 o          1 IE4      -0.537000
     20 S13          0.0930    -0.1400     0.8210 ss         1 IE4       0.303000
     21 S06         -2.9310     0.3690     1.0290 sy         1 IE4       1.198600
     22 H20          4.5870    -2.4940     2.0960 ha         1 IE4       0.139000
     23 H21          2.4570    -1.3810     1.4930 ha         1 IE4       0.133000
     24 H19          6.7810    -1.8890     0.9730 h4         1 IE4       0.146000
     25 H11          0.6060     2.3820    -1.8010 ha         1 IE4       0.137000
     26 H10         -1.8620     2.2840    -1.1220 ha         1 IE4       0.143000
     27 H18          6.7230    -0.1390    -0.7530 hn         1 IE4       0.364000
     28 H15          2.8150     2.2220    -2.1770 h4         1 IE4       0.216000
     29 H041        -5.0220    -1.6530     0.6080 h1         1 IE4       0.058700
     30 H042        -3.4630    -2.4990     0.5840 h1         1 IE4       0.058700
     31 H031        -5.1990    -1.8680    -1.8750 h1         1 IE4       0.039700
     32 H032        -3.6280    -2.7010    -1.9260 h1         1 IE4       0.039700
     33 H05         -2.5380    -0.7020    -0.7180 hn         1 IE4       0.475000
     34 H021        -5.4230    -4.2480    -2.0190 hn         1 IE4       0.396000
     35 H022        -4.5470    -4.5000    -0.6880 hn         1 IE4       0.396000
@<TRIPOS>BOND
     1     1     2 1   
     2     1     5 2   
     3     1    22 1   
     4     2     7 2   
     5     2    23 1   
     6     3     4 1   
     7     3     9 2   
     8     3    25 1   
     9     4    11 2   
    10     4    26 1   
    11     5    14 1   
    12     5    24 1   
    13     6     8 2   
    14     6    15 1   
    15     6    28 1   
    16     7     8 1   
    17     7    10 1   
    18     8     9 1   
    19     9    20 1   
    20    10    14 1   
    21    10    15 2   
    22    11    20 1   
    23    11    21 1   
    24    12    13 1   
    25    12    16 1   
    26    12    29 1   
    27    12    30 1   
    28    13    17 1   
    29    13    31 1   
    30    13    32 1   
    31    14    27 1   
    32    16    21 1   
    33    16    33 1   
    34    17    34 1   
    35    17    35 1   
    36    18    21 2   
    37    19    21 2   
@<TRIPOS>SUBSTRUCTURE
     1 IE4         1 TEMP              0 ****  ****    0 ROOT
