@<TRIPOS>MOLECULE
IE4
   35    37     1     0     0
SMALL
bcc


@<TRIPOS>ATOM
      1 C20          3.8210    -2.3660     0.9710 cc         1 IE4      -0.218000
      2 C21          2.7620    -1.5140     0.6530 cc         1 IE4      -0.001000
      3 C11          0.1700     1.9230    -1.2500 cc         1 IE4      -0.209000
      4 C10         -1.2030     1.9600    -0.9380 cc         1 IE4       0.003000
      5 C19          5.1170    -2.0090     0.6690 cd         1 IE4      -0.042300
      6 C15          3.2850     1.6560    -0.9890 cc         1 IE4       0.113600
      7 C22          3.0350    -0.3050     0.0390 cd         1 IE4      -0.122800
      8 C14          2.3090     0.8180    -0.4590 cd         1 IE4      -0.152400
      9 C12          0.8920     1.0700    -0.4430 cd         1 IE4       0.091100
     10 C17          4.3970     0.0170    -0.2690 cd         1 IE4       0.002700
     11 C09         -1.5190     1.1350     0.1040 cd         1 IE4      -0.362600
     12 C04         -3.1190    -1.6900    -0.2450 c3         1 IE4       0.196800
     13 C03         -4.1090    -2.7420    -0.7220 c3         1 IE4       0.147800
     14 N18          5.3780    -0.8440     0.0620 na         1 IE4      -0.096100
     15 N16          4.5480     1.1830    -0.8790 nc         1 IE4      -0.352600
     16 N05         -3.7870    -0.3940    -0.1590 n7         1 IE4      -0.813100
     17 N02         -3.4280    -4.0180    -0.8490 n8         1 IE4      -0.890800
     18 O07         -2.9000     0.2590     2.0740 o          1 IE4      -0.607800
     19 O08         -3.9270     1.9780     0.5310 o          1 IE4      -0.607800
     20 S13         -0.1370     0.3180     0.7220 ss         1 IE4       0.013200
     21 S06         -3.1040     0.8000     0.7410 sy         1 IE4       1.340200
     22 H20          3.6410    -3.3140     1.4540 ha         1 IE4       0.157000
     23 H21          1.7510    -1.8220     0.8900 ha         1 IE4       0.151000
     24 H19          5.9690    -2.6300     0.8950 h4         1 IE4       0.164000
     25 H11          0.6160     2.4950    -2.0510 ha         1 IE4       0.155000
     26 H10         -1.9250     2.5640    -1.4680 ha         1 IE4       0.161000
     27 H18          6.3360    -0.6010    -0.1560 hn         1 IE4       0.313700
     28 H15          3.1080     2.6210    -1.4470 h4         1 IE4       0.166000
     29 H041        -2.7560    -1.9700     0.7430 h1         1 IE4       0.058700
     30 H042        -2.2570    -1.6490    -0.9210 h1         1 IE4       0.058700
     31 H031        -4.9030    -2.8370     0.0210 h1         1 IE4       0.039700
     32 H032        -4.5860    -2.3980    -1.6510 h1         1 IE4       0.039700
     33 H05         -4.1050    -0.0410    -1.0560 hn         1 IE4       0.419800
     34 H021        -4.1080    -4.7510    -0.9990 hn         1 IE4       0.340800
     35 H022        -2.8450    -4.0110    -1.6770 hn         1 IE4       0.340800
@<TRIPOS>BOND
     1     1     2 1   
     2     1     5 2   
     3     1    22 1   
     4     2     7 2   
     5     2    23 1   
     6     3     4 1   
     7     3     9 2   
     8     3    25 1   
     9     4    11 2   
    10     4    26 1   
    11     5    14 1   
    12     5    24 1   
    13     6     8 2   
    14     6    15 1   
    15     6    28 1   
    16     7     8 1   
    17     7    10 1   
    18     8     9 1   
    19     9    20 1   
    20    10    14 1   
    21    10    15 2   
    22    11    20 1   
    23    11    21 1   
    24    12    13 1   
    25    12    16 1   
    26    12    29 1   
    27    12    30 1   
    28    13    17 1   
    29    13    31 1   
    30    13    32 1   
    31    14    27 1   
    32    16    21 1   
    33    16    33 1   
    34    17    34 1   
    35    17    35 1   
    36    18    21 2   
    37    19    21 2   
@<TRIPOS>SUBSTRUCTURE
     1 IE4         1 TEMP              0 ****  ****    0 ROOT
