@<TRIPOS>MOLECULE
IE5
   75    78     1     0     0
SMALL
No Charge or Current Charge


@<TRIPOS>ATOM
      1 N3         170.8260   156.2370   184.8030 nc         1 IE5      -0.652300
      2 C4         169.7880   155.3320   184.7910 cc         1 IE5       0.004600
      3 C5         169.1280   154.9820   185.9460 cf         1 IE5       0.045800
      4 C6         169.3240   155.5200   187.3010 cd         1 IE5      -0.188800
      5 C8         171.7590   158.8440   189.2120 cc         1 IE5       0.018600
      6 C10        172.2980   157.2770   183.1870 cf         1 IE5      -0.235600
      7 C13        175.1550   158.8630   184.7310 cd         1 IE5      -0.157200
      8 C15        170.4540   155.5350   182.6550 cd         1 IE5      -0.287800
      9 C17        169.5510   154.8850   183.4520 cc         1 IE5      -0.010200
     10 C21        168.7070   155.1690   188.4750 cc         1 IE5      -0.036300
     11 C22        167.6440   154.1120   188.6770 c3         1 IE5      -0.014100
     12 C1         173.1960   160.5720   188.9450 cd         1 IE5      -0.168400
     13 CAC        172.7110   159.6840   189.8960 cc         1 IE5      -0.016000
     14 CAA        170.1960   156.8120   188.9910 cd         1 IE5      -0.131800
     15 N6         170.2240   156.5280   187.6270 na         1 IE5      -0.080000
     16 C2         171.2180   156.3570   183.5400 cd         1 IE5       0.463900
     17 C11        173.3240   157.7650   183.9450 cc         1 IE5       0.031600
     18 NAA        173.5460   157.4150   185.2490 ns         1 IE5      -0.403100
     19 C12        174.6230   158.0080   185.8240 c          1 IE5       0.568200
     20 OP3        175.0270   157.8290   186.9640 o          1 IE5      -0.551000
     21 C14        174.3640   158.6950   183.6040 cc         1 IE5      -0.032200
     22 C16        170.6260   155.4200   181.1600 c3         1 IE5      -0.010900
     23 C18        168.4850   153.8930   183.0450 c3         1 IE5      -0.023200
     24 C19        168.9260   152.4240   183.2410 c3         1 IE5      -0.201400
     25 O5         167.8240   151.1400   181.5780 o          1 IE5      -0.738000
     26 OP1        166.9570   151.1380   183.5500 o          1 IE5      -0.738000
     27 C7         166.2100   154.6600   188.4830 c3         1 IE5      -0.203400
     28 C3         165.1840   153.5500   188.7610 c          1 IE5       0.722000
     29 O3         164.7880   153.4050   189.9080 o          1 IE5      -0.738000
     30 O1         164.8480   152.8290   187.8340 o          1 IE5      -0.738000
     31 C25        169.2470   155.9700   189.5210 cc         1 IE5      -0.144300
     32 N4         171.7230   159.2830   187.9100 ns         1 IE5      -0.414100
     33 C27        172.5460   160.3270   187.6440 c          1 IE5       0.558200
     34 O2         172.6750   160.9040   186.5750 o          1 IE5      -0.540000
     35 C30        176.7620   160.2890   185.9990 c2         1 IE5      -0.308000
     36 C31        173.0880   159.5520   191.3060 ce         1 IE5      -0.151000
     37 C32        173.5350   160.5440   192.1070 c2         1 IE5      -0.316000
     38 C33        174.2440   161.6540   189.0710 c3         1 IE5      -0.025900
     39 H3         168.3360   154.2440   185.8260 ha         1 IE5       0.232000
     40 H4         172.2990   157.5970   182.1480 ha         1 IE5       0.184000
     41 H14        167.8100   153.2820   187.9800 hc         1 IE5       0.059200
     42 H13        167.7330   153.6750   189.6790 hc         1 IE5       0.059200
     43 H19        169.2860   155.0100   191.4530 hc         1 IE5       0.034033
     44 H17        169.0750   156.7680   191.5300 hc         1 IE5       0.034033
     45 H18        167.7250   155.7460   191.0460 hc         1 IE5       0.034033
     46 H21        175.1980   160.1850   182.2720 hc         1 IE5       0.046033
     47 H22        174.8690   158.6180   181.5100 hc         1 IE5       0.046033
     48 H23        173.5350   159.7230   181.8980 hc         1 IE5       0.046033
     49 H35        171.1080   157.6450   190.7730 ha         1 IE5       0.192000
     50 H2         170.8440   156.9460   186.9420 hn         1 IE5       0.377000
     51 H5         172.9870   156.7410   185.7540 hn         1 IE5       0.362500
     52 H7         170.3510   154.4210   180.8020 hc         1 IE5       0.029033
     53 H6         169.9980   156.1500   180.6370 hc         1 IE5       0.029033
     54 H8         171.6670   155.5960   180.8630 hc         1 IE5       0.029033
     55 H10        167.5630   154.0790   183.6080 hc         1 IE5       0.059700
     56 H9         168.2230   154.0500   181.9910 hc         1 IE5       0.059700
     57 H11        169.8320   152.3010   182.6360 hc         1 IE5       0.019700
     58 H12        169.0950   152.2990   184.3180 hc         1 IE5       0.019700
     59 H15        166.1530   154.9870   187.4380 hc         1 IE5       0.019700
     60 H16        166.0970   155.4760   189.2060 hc         1 IE5       0.019700
     61 H20        171.0770   158.9570   187.2050 hn         1 IE5       0.349500
     62 H24        176.9000   159.9080   183.9250 ha         1 IE5       0.155000
     63 H26        177.6450   160.9300   186.0200 ha         1 IE5       0.166500
     64 H25        176.2260   160.1470   186.9380 ha         1 IE5       0.166500
     65 H27        172.9570   158.5520   191.7230 ha         1 IE5       0.181000
     66 H53        173.7820   160.3590   193.1530 ha         1 IE5       0.160000
     67 H29        173.6550   161.5680   191.7560 ha         1 IE5       0.160000
     68 H30        175.0710   161.3290   189.7130 hc         1 IE5       0.043033
     69 H31        174.6730   161.9180   188.0980 hc         1 IE5       0.043033
     70 H32        173.8150   162.5660   189.5030 hc         1 IE5       0.043033
     71 C26        168.8110   155.8680   190.9640 c3         1 IE5      -0.010800
     72 CAB        171.0200   157.7980   189.6990 cf         1 IE5      -0.132200
     73 C20        167.8200   151.4740   182.7540 c          1 IE5       0.721000
     74 C28        174.5010   159.3400   182.2480 c3         1 IE5      -0.043900
     75 C29        176.3540   159.7060   184.8500 cf         1 IE5      -0.148000
@<TRIPOS>BOND
     1     1     2 1   
     2     1    16 2   
     3     2     3 2   
     4     2     9 1   
     5     3     4 1   
     6     3    39 1   
     7     4    10 2   
     8     4    15 1   
     9     5    13 1   
    10     5    32 1   
    11     5    72 2   
    12     6    16 1   
    13     6    17 2   
    14     6    40 1   
    15     7    19 1   
    16     7    21 2   
    17     7    75 1   
    18     8     9 2   
    19     8    16 1   
    20     8    22 1   
    21     9    23 1   
    22    10    11 1   
    23    10    31 1   
    24    11    27 1   
    25    11    41 1   
    26    11    42 1   
    27    12    13 2   
    28    12    33 1   
    29    12    38 1   
    30    13    36 1   
    31    14    15 1   
    32    14    31 2   
    33    14    72 1   
    34    15    50 1   
    35    17    18 1   
    36    17    21 1   
    37    18    19 1   
    38    18    51 1   
    39    19    20 2   
    40    21    74 1   
    41    22    52 1   
    42    22    53 1   
    43    22    54 1   
    44    23    24 1   
    45    23    55 1   
    46    23    56 1   
    47    24    57 1   
    48    24    58 1   
    49    24    73 1   
    50    25    73 1   
    51    26    73 1   
    52    27    28 1   
    53    27    59 1   
    54    27    60 1   
    55    28    29 1   
    56    28    30 1   
    57    31    71 1   
    58    32    33 1   
    59    32    61 1   
    60    33    34 2   
    61    35    63 1   
    62    35    64 1   
    63    35    75 2   
    64    36    37 2   
    65    36    65 1   
    66    37    66 1   
    67    37    67 1   
    68    38    68 1   
    69    38    69 1   
    70    38    70 1   
    71    43    71 1   
    72    44    71 1   
    73    45    71 1   
    74    46    74 1   
    75    47    74 1   
    76    48    74 1   
    77    49    72 1   
    78    62    75 1   
@<TRIPOS>SUBSTRUCTURE
     1 IE5         1 TEMP              0 ****  ****    0 ROOT
