@<TRIPOS>MOLECULE
IE5
   75    78     1     0     0
SMALL
bcc


@<TRIPOS>ATOM
      1 N3         170.9500   156.1680   184.9480 nc         1 IE5      -0.652300
      2 C4         169.8970   155.2770   184.9370 cc         1 IE5       0.004600
      3 C5         169.2010   154.9090   186.0610 cf         1 IE5       0.095800
      4 C6         169.3900   155.4060   187.3640 cd         1 IE5      -0.138100
      5 C8         171.7390   158.6860   189.0830 cc         1 IE5       0.018600
      6 C10        172.3470   157.2070   183.2470 cf         1 IE5      -0.185600
      7 C13        175.1040   158.9760   184.7110 cd         1 IE5      -0.157200
      8 C15        170.4580   155.5620   182.7840 cd         1 IE5      -0.287800
      9 C17        169.5930   154.8700   183.5780 cc         1 IE5      -0.010200
     10 C21        168.7180   155.0750   188.5530 cc         1 IE5      -0.036300
     11 C22        167.5530   154.1530   188.6770 c3         1 IE5      -0.014100
     12 C1         173.1020   160.5140   188.8840 cd         1 IE5      -0.168400
     13 CAC        172.6530   159.6010   189.7750 cc         1 IE5      -0.016000
     14 CAA        170.2670   156.6630   188.9870 cd         1 IE5      -0.081100
     15 N6         170.3080   156.3720   187.6660 na         1 IE5      -0.131100
     16 C2         171.2860   156.3430   183.6830 cd         1 IE5       0.463900
     17 C11        173.3020   157.7500   184.0340 cc         1 IE5       0.031600
     18 NAA        173.4750   157.5310   185.3800 ns         1 IE5      -0.470100
     19 C12        174.5560   158.2140   185.8670 c          1 IE5       0.710700
     20 OP3        174.9620   158.1600   187.0110 o          1 IE5      -0.626500
     21 C14        174.3570   158.6690   183.6200 cc         1 IE5      -0.032200
     22 C16        170.5850   155.5350   181.2990 c3         1 IE5      -0.010900
     23 C18        168.5780   153.8560   183.1740 c3         1 IE5      -0.023200
     24 C19        169.1510   152.4390   183.2140 c3         1 IE5      -0.201400
     25 O5         167.0370   151.6510   182.4220 o          1 IE5      -0.843300
     26 OP1        168.6440   150.1600   182.8360 o          1 IE5      -0.843300
     27 C7         166.2350   154.8980   188.4650 c3         1 IE5      -0.203400
     28 C3         164.9530   154.0550   188.6140 c          1 IE5       0.932600
     29 O3         165.0800   152.8500   188.9040 o          1 IE5      -0.843300
     30 O1         163.8850   154.6720   188.4240 o          1 IE5      -0.843300
     31 C25        169.2770   155.8560   189.5710 cc         1 IE5      -0.144300
     32 N4         171.6730   159.1270   187.7760 ns         1 IE5      -0.481100
     33 C27        172.4480   160.2450   187.5880 c          1 IE5       0.700700
     34 O2         172.5520   160.8700   186.5500 o          1 IE5      -0.615500
     35 C30        176.9080   160.2600   185.8550 c2         1 IE5      -0.208000
     36 C31        173.0100   159.4480   191.1790 ce         1 IE5      -0.101000
     37 C32        173.2730   160.4570   192.0080 c2         1 IE5      -0.216000
     38 C33        174.0900   161.6080   189.0380 c3         1 IE5      -0.025900
     39 H3         168.4050   154.1830   185.9410 ha         1 IE5       0.182000
     40 H4         172.3950   157.4340   182.1890 ha         1 IE5       0.134000
     41 H14        167.6340   153.3340   187.9590 hc         1 IE5       0.059200
     42 H13        167.5570   153.6870   189.6650 hc         1 IE5       0.059200
     43 H19        168.5620   154.8890   191.3430 hc         1 IE5       0.034033
     44 H17        169.6380   156.2400   191.6610 hc         1 IE5       0.034033
     45 H18        167.9850   156.5350   191.1480 hc         1 IE5       0.034033
     46 H21        175.3280   159.8460   182.1110 hc         1 IE5       0.046033
     47 H22        174.6700   158.3170   181.5380 hc         1 IE5       0.046033
     48 H23        173.5920   159.6570   181.8890 hc         1 IE5       0.046033
     49 H35        171.1940   157.5200   190.7070 ha         1 IE5       0.142000
     50 H2         170.9650   156.6850   186.9640 hn         1 IE5       0.326700
     51 H5         172.9100   156.8860   185.9090 hn         1 IE5       0.362500
     52 H7         169.8150   154.9110   180.8470 hc         1 IE5       0.029033
     53 H6         170.4930   156.5330   180.8660 hc         1 IE5       0.029033
     54 H8         171.5520   155.1380   180.9820 hc         1 IE5       0.029033
     55 H10        167.7000   153.9150   183.8220 hc         1 IE5       0.059700
     56 H9         168.2190   154.0760   182.1670 hc         1 IE5       0.059700
     57 H11        170.0410   152.3930   182.5770 hc         1 IE5       0.019700
     58 H12        169.5140   152.2180   184.2240 hc         1 IE5       0.019700
     59 H15        166.2370   155.3520   187.4680 hc         1 IE5       0.019700
     60 H16        166.1790   155.7440   189.1590 hc         1 IE5       0.019700
     61 H20        170.9900   158.8330   187.0960 hn         1 IE5       0.349500
     62 H24        176.5370   160.3000   183.8130 ha         1 IE5       0.105000
     63 H26        177.7300   160.9570   185.7640 ha         1 IE5       0.116500
     64 H25        176.6770   159.9040   186.8470 ha         1 IE5       0.116500
     65 H27        173.0480   158.4350   191.5640 ha         1 IE5       0.131000
     66 H53        173.5390   160.2700   193.0390 ha         1 IE5       0.110000
     67 H29        173.2110   161.4930   191.7020 ha         1 IE5       0.110000
     68 H30        174.7770   161.4140   189.8620 hc         1 IE5       0.043033
     69 H31        174.6730   161.7330   188.1250 hc         1 IE5       0.043033
     70 H32        173.6030   162.5640   189.2410 hc         1 IE5       0.043033
     71 C26        168.8490   155.8830   191.0000 c3         1 IE5      -0.010800
     72 CAB        171.0940   157.6370   189.6360 cf         1 IE5      -0.082200
     73 C20        168.1830   151.3180   182.7840 c          1 IE5       0.931600
     74 C28        174.4990   159.1500   182.2220 c3         1 IE5      -0.043900
     75 C29        176.2310   159.8830   184.7670 cf         1 IE5      -0.098000
@<TRIPOS>BOND
     1     1     2 1   
     2     1    16 2   
     3     2     3 2   
     4     2     9 1   
     5     3     4 1   
     6     3    39 1   
     7     4    10 2   
     8     4    15 1   
     9     5    13 1   
    10     5    32 1   
    11     5    72 2   
    12     6    16 1   
    13     6    17 2   
    14     6    40 1   
    15     7    19 1   
    16     7    21 2   
    17     7    75 1   
    18     8     9 2   
    19     8    16 1   
    20     8    22 1   
    21     9    23 1   
    22    10    11 1   
    23    10    31 1   
    24    11    27 1   
    25    11    41 1   
    26    11    42 1   
    27    12    13 2   
    28    12    33 1   
    29    12    38 1   
    30    13    36 1   
    31    14    15 1   
    32    14    31 2   
    33    14    72 1   
    34    15    50 1   
    35    17    18 1   
    36    17    21 1   
    37    18    19 1   
    38    18    51 1   
    39    19    20 2   
    40    21    74 1   
    41    22    52 1   
    42    22    53 1   
    43    22    54 1   
    44    23    24 1   
    45    23    55 1   
    46    23    56 1   
    47    24    57 1   
    48    24    58 1   
    49    24    73 1   
    50    25    73 1   
    51    26    73 1   
    52    27    28 1   
    53    27    59 1   
    54    27    60 1   
    55    28    29 1   
    56    28    30 1   
    57    31    71 1   
    58    32    33 1   
    59    32    61 1   
    60    33    34 2   
    61    35    63 1   
    62    35    64 1   
    63    35    75 2   
    64    36    37 2   
    65    36    65 1   
    66    37    66 1   
    67    37    67 1   
    68    38    68 1   
    69    38    69 1   
    70    38    70 1   
    71    43    71 1   
    72    44    71 1   
    73    45    71 1   
    74    46    74 1   
    75    47    74 1   
    76    48    74 1   
    77    49    72 1   
    78    62    75 1   
@<TRIPOS>SUBSTRUCTURE
     1 IE5         1 TEMP              0 ****  ****    0 ROOT
