@<TRIPOS>MOLECULE
IE6
   38    40     1     0     0
SMALL
bcc


@<TRIPOS>ATOM
      1 C12          0.0450    -0.7700    -2.4250 cc         1 IE6      -0.173000
      2 C13         -1.2820    -0.2960    -2.4520 cc         1 IE6      -0.013000
      3 C06          2.6600    -1.9540    -1.4670 ca         1 IE6      -0.257300
      4 C03          2.7390     1.1120     0.7600 cc         1 IE6      -0.194200
      5 C07          3.9620    -2.3210    -1.1410 ca         1 IE6       0.418200
      6 C04          2.8700    -0.0790    -0.0160 ca         1 IE6      -0.185100
      7 C05          2.0780    -0.8160    -0.9080 ca         1 IE6       0.050000
      8 C11          0.7120    -0.4540    -1.2670 cd         1 IE6       0.015900
      9 C02          3.9190     1.2900     1.4310 cd         1 IE6      -0.035300
     10 C09          4.1760    -0.5740     0.2300 ca         1 IE6       0.437800
     11 C14         -1.6010     0.3800    -1.3100 cd         1 IE6      -0.352600
     12 C01          4.3160     2.3640     2.3740 c3         1 IE6      -0.044900
     13 C20         -3.5890    -0.6420     1.1090 c3         1 IE6       0.200800
     14 C21         -4.7630    -1.3190     1.8010 c3         1 IE6       0.147800
     15 N08          4.7330    -1.6490    -0.2940 nb         1 IE6      -0.674000
     16 N10          4.7760     0.2730     1.1100 na         1 IE6      -0.275100
     17 N19         -4.0430    -0.0620    -0.1510 n7         1 IE6      -0.824100
     18 N22         -4.3020    -1.9520     3.0230 n8         1 IE6      -0.887800
     19 O17         -2.8620     2.1180     0.0870 o          1 IE6      -0.605300
     20 O18         -3.8320     1.3950    -2.1370 o          1 IE6      -0.605300
     21 S15         -0.2990     0.4420    -0.1980 ss         1 IE6       0.079200
     22 S16         -3.1470     1.0890    -0.8960 sy         1 IE6       1.345200
     23 H12          0.5020    -1.3080    -3.2440 ha         1 IE6       0.158000
     24 H13         -1.9630    -0.4370    -3.2790 ha         1 IE6       0.166000
     25 H06          2.0970    -2.5810    -2.1450 ha         1 IE6       0.142000
     26 H07          4.3920    -3.2100    -1.5850 h4         1 IE6       0.021100
     27 H03          1.8970     1.7820     0.8250 ha         1 IE6       0.164000
     28 H011         4.5180     1.9620     3.3690 hc         1 IE6       0.055033
     29 H012         5.2210     2.8730     2.0390 hc         1 IE6       0.055033
     30 H013         3.5240     3.1040     2.4630 hc         1 IE6       0.055033
     31 H10          5.7150     0.1680     1.4580 hn         1 IE6       0.310700
     32 H201        -3.2070     0.1530     1.7490 h1         1 IE6       0.060700
     33 H202        -2.7800    -1.3640     0.9490 h1         1 IE6       0.060700
     34 H211        -5.5050    -0.5600     2.0520 h1         1 IE6       0.039200
     35 H212        -5.2470    -2.0120     1.0970 h1         1 IE6       0.039200
     36 H19         -4.4080    -0.7420    -0.8100 hn         1 IE6       0.424800
     37 H221        -5.1000    -2.2700     3.5570 hn         1 IE6       0.341800
     38 H222        -3.7750    -2.7850     2.7940 hn         1 IE6       0.341800
@<TRIPOS>BOND
     1     1     2 1   
     2     1     8 2   
     3     1    23 1   
     4     2    11 2   
     5     2    24 1   
     6     3     5 ar  
     7     3     7 ar  
     8     3    25 1   
     9     4     6 1   
    10     4     9 2   
    11     4    27 1   
    12     5    15 ar  
    13     5    26 1   
    14     6     7 ar  
    15     6    10 ar  
    16     7     8 1   
    17     8    21 1   
    18     9    12 1   
    19     9    16 1   
    20    10    15 ar  
    21    10    16 1   
    22    11    21 1   
    23    11    22 1   
    24    12    28 1   
    25    12    29 1   
    26    12    30 1   
    27    13    14 1   
    28    13    17 1   
    29    13    32 1   
    30    13    33 1   
    31    14    18 1   
    32    14    34 1   
    33    14    35 1   
    34    16    31 1   
    35    17    22 1   
    36    17    36 1   
    37    18    37 1   
    38    18    38 1   
    39    19    22 2   
    40    20    22 2   
@<TRIPOS>SUBSTRUCTURE
     1 IE6         1 TEMP              0 ****  ****    0 ROOT
