@<TRIPOS>MOLECULE
IE6
   38    40     1     0     0
SMALL
No Charge or Current Charge


@<TRIPOS>ATOM
      1 C12          0.0030    -0.7920    -2.2730 cc         1 IE6      -0.155000
      2 C13         -1.3330    -0.3420    -2.1520 cc         1 IE6       0.005000
      3 C06          2.7650    -1.8900    -1.7710 ca         1 IE6      -0.174000
      4 C03          3.0650     1.0240     0.6370 cc         1 IE6      -0.244200
      5 C07          4.0890    -2.3160    -1.5550 ca         1 IE6       0.352900
      6 C04          3.1700    -0.1560    -0.1860 ca         1 IE6      -0.119800
      7 C05          2.2520    -0.7780    -1.0670 ca         1 IE6       0.050000
      8 C11          0.8450    -0.3520    -1.2740 cd         1 IE6      -0.129000
      9 C02          4.2780     1.1870     1.2770 cd         1 IE6      -0.035300
     10 C09          4.4580    -0.6380    -0.0290 ca         1 IE6       0.372500
     11 C14         -1.5430     0.4150    -1.0300 cd         1 IE6      -0.497500
     12 C01          4.6950     2.2740     2.2300 c3         1 IE6      -0.044900
     13 C20         -4.4170    -0.2550     1.2880 c3         1 IE6       0.200800
     14 C21         -4.9690    -1.6700     1.6200 c3         1 IE6       0.147800
     15 N08          4.9330    -1.7060    -0.6930 nb         1 IE6      -0.674000
     16 N10          5.1400     0.1500     0.8740 na         1 IE6      -0.325400
     17 N19         -3.6950    -0.2600    -0.0000 n7         1 IE6      -0.879300
     18 N22         -5.7020    -1.7340     2.9120 n8         1 IE6      -0.998200
     19 O17         -2.8100     2.0240     0.6260 o          1 IE6      -0.534500
     20 O18         -3.8300     1.5700    -1.7070 o          1 IE6      -0.534500
     21 S15         -0.0680     0.6120    -0.0850 ss         1 IE6       0.369000
     22 S16         -3.0450     1.1680    -0.5380 sy         1 IE6       1.203600
     23 H12          0.3050    -1.4220    -3.1020 ha         1 IE6       0.140000
     24 H13         -2.1020    -0.5930    -2.8800 ha         1 IE6       0.148000
     25 H06          2.1530    -2.4500    -2.4680 ha         1 IE6       0.124000
     26 H07          4.4840    -3.1800    -2.0880 h4         1 IE6       0.021100
     27 H03          2.2380     1.7200     0.7320 ha         1 IE6       0.214000
     28 H011         5.0600     1.8510     3.1730 hc         1 IE6       0.055033
     29 H012         5.4960     2.8860     1.8010 hc         1 IE6       0.055033
     30 H013         3.8550     2.9390     2.4660 hc         1 IE6       0.055033
     31 H10          6.0970     0.0080     1.1670 hn         1 IE6       0.361000
     32 H201        -5.2620     0.4470     1.2500 h1         1 IE6       0.060700
     33 H202        -3.7560     0.0660     2.1060 h1         1 IE6       0.060700
     34 H211        -5.6530    -1.9820     0.8180 h1         1 IE6       0.039200
     35 H212        -4.1370    -2.3870     1.6550 h1         1 IE6       0.039200
     36 H19         -2.8510    -0.8240     0.0610 hn         1 IE6       0.480000
     37 H221        -6.0130    -2.7000     3.0730 hn         1 IE6       0.397000
     38 H222        -5.0440    -1.5650     3.6830 hn         1 IE6       0.397000
@<TRIPOS>BOND
     1     1     2 1   
     2     1     8 2   
     3     1    23 1   
     4     2    11 2   
     5     2    24 1   
     6     3     5 ar  
     7     3     7 ar  
     8     3    25 1   
     9     4     6 1   
    10     4     9 2   
    11     4    27 1   
    12     5    15 ar  
    13     5    26 1   
    14     6     7 ar  
    15     6    10 ar  
    16     7     8 1   
    17     8    21 1   
    18     9    12 1   
    19     9    16 1   
    20    10    15 ar  
    21    10    16 1   
    22    11    21 1   
    23    11    22 1   
    24    12    28 1   
    25    12    29 1   
    26    12    30 1   
    27    13    14 1   
    28    13    17 1   
    29    13    32 1   
    30    13    33 1   
    31    14    18 1   
    32    14    34 1   
    33    14    35 1   
    34    16    31 1   
    35    17    22 1   
    36    17    36 1   
    37    18    37 1   
    38    18    38 1   
    39    19    22 2   
    40    20    22 2   
@<TRIPOS>SUBSTRUCTURE
     1 IE6         1 TEMP              0 ****  ****    0 ROOT
