@<TRIPOS>MOLECULE
IE7
   49    53     1     0     0
SMALL
abcg2


@<TRIPOS>ATOM
      1 C13         94.1270    -3.9320    14.0660 cy         1 IE7       0.100000
      2 C15         92.2200    -3.9440    15.0560 cy         1 IE7       0.100000
      3 C16         93.6700    -9.8000    12.3380 cc         1 IE7       0.105600
      4 C17         94.9700    -9.4420    11.8670 cc         1 IE7      -0.192000
      5 C18         95.5260   -10.0690    10.8030 cd         1 IE7      -0.054000
      6 C19         92.9680   -10.7940    11.6930 cd         1 IE7      -0.147000
      7 C20         93.5680   -11.4220    10.5900 cd         1 IE7      -0.034000
      8 C23         94.1630   -12.5610     8.9330 cc         1 IE7       0.588900
      9 C25         94.1370   -13.5540     7.8560 ca         1 IE7      -0.105900
     10 C26         95.2550   -13.7590     7.0480 ca         1 IE7      -0.073000
     11 C27         95.2200   -14.7030     6.0340 ca         1 IE7      -0.124000
     12 C28         94.0710   -15.4520     5.8140 ca         1 IE7      -0.097000
     13 N1          90.9310    -8.5020    16.1630 na         1 IE7       0.182800
     14 C2          91.8350    -8.2420    15.1920 cc         1 IE7      -0.157600
     15 C3          92.3490    -6.9750    15.4760 cd         1 IE7      -0.251600
     16 C4          91.6760    -6.5850    16.6420 cd         1 IE7       0.261900
     17 N5          90.8410    -7.5190    17.0440 nc         1 IE7      -0.510800
     18 C7          92.0360    -9.1970    14.0690 c          1 IE7       0.634700
     19 C8          93.4040    -6.2160    14.7790 c          1 IE7       0.667700
     20 N9          93.2290    -9.0870    13.4410 ns         1 IE7      -0.399100
     21 O10         91.1710   -10.0020    13.7740 o          1 IE7      -0.584100
     22 O11         94.3630    -6.7740    14.2300 o          1 IE7      -0.650100
     23 N12         93.3010    -4.8930    14.7870 nj         1 IE7      -0.400800
     24 C14         93.0180    -2.8810    14.2760 cy         1 IE7      -0.116400
     25 N21         94.8200   -11.0460    10.1880 na         1 IE7       0.280400
     26 N22         95.2050   -11.7710     9.1310 nd         1 IE7      -0.602100
     27 N24         93.1410   -12.3890     9.7910 nc         1 IE7      -0.406300
     28 C29         92.9550   -15.2510     6.6150 ca         1 IE7      -0.124000
     29 C30         92.9860   -14.3090     7.6310 ca         1 IE7      -0.073000
     30 H1          95.0760    -3.7190    14.5610 h1         1 IE7       0.062450
     31 H2          94.3210    -4.2180    13.0320 h1         1 IE7       0.062450
     32 H3          91.2620    -4.2380    14.6240 h1         1 IE7       0.062450
     33 H4          92.0840    -3.7200    16.1140 h1         1 IE7       0.062450
     34 H5          95.5340    -8.6610    12.3570 ha         1 IE7       0.149000
     35 H6          96.5040    -9.8410    10.4070 h4         1 IE7       0.162000
     36 H7          91.9850   -11.1140    11.9940 ha         1 IE7       0.176000
     37 H8          96.1550   -13.1820     7.2130 ha         1 IE7       0.131000
     38 H9          96.0940   -14.8560     5.4140 ha         1 IE7       0.112500
     39 H10         94.0460   -16.1890     5.0220 ha         1 IE7       0.110000
     40 H11         91.7950    -5.6820    17.2200 h4         1 IE7       0.045100
     41 H12         89.6920    -9.5940    17.3720 h1         1 IE7       0.072700
     42 H13         89.3060    -9.7360    15.6490 h1         1 IE7       0.072700
     43 H14         90.7120   -10.5850    16.3190 h1         1 IE7       0.072700
     44 H15         93.8500    -8.3360    13.7760 hn         1 IE7       0.382500
     45 H16         93.3130    -2.0140    14.8620 hc         1 IE7       0.066200
     46 H17         92.5400    -2.5490    13.3580 hc         1 IE7       0.066200
     47 H18         92.0550   -15.8300     6.4480 ha         1 IE7       0.112500
     48 H19         92.1140   -14.1560     8.2530 ha         1 IE7       0.131000
     49 C6          90.1120    -9.6810    16.3750 c3         1 IE7       0.067900
@<TRIPOS>BOND
     1     1    23 1   
     2     1    24 1   
     3     1    30 1   
     4     1    31 1   
     5     2    23 1   
     6     2    24 1   
     7     2    32 1   
     8     2    33 1   
     9     3     4 1   
    10     3     6 2   
    11     3    20 1   
    12     4     5 2   
    13     4    34 1   
    14     5    25 1   
    15     5    35 1   
    16     6     7 1   
    17     6    36 1   
    18     7    25 1   
    19     7    27 2   
    20     8     9 1   
    21     8    26 2   
    22     8    27 1   
    23     9    10 ar  
    24     9    29 ar  
    25    10    11 ar  
    26    10    37 1   
    27    11    12 ar  
    28    11    38 1   
    29    12    28 ar  
    30    12    39 1   
    31    13    14 1   
    32    13    17 1   
    33    13    49 1   
    34    14    15 2   
    35    14    18 1   
    36    15    16 1   
    37    15    19 1   
    38    16    17 2   
    39    16    40 1   
    40    18    20 1   
    41    18    21 2   
    42    19    22 2   
    43    19    23 1   
    44    20    44 1   
    45    24    45 1   
    46    24    46 1   
    47    25    26 1   
    48    28    29 ar  
    49    28    47 1   
    50    29    48 1   
    51    41    49 1   
    52    42    49 1   
    53    43    49 1   
@<TRIPOS>SUBSTRUCTURE
     1 IE7         1 TEMP              0 ****  ****    0 ROOT
