@<TRIPOS>MOLECULE
IE7
   49    53     1     0     0
SMALL
No Charge or Current Charge


@<TRIPOS>ATOM
      1 C13         94.4730    -4.4930    15.3560 cy         1 IE7       0.100000
      2 C15         92.8270    -3.7620    14.2200 cy         1 IE7       0.100000
      3 C16         93.2100    -9.5420    11.9760 cc         1 IE7       0.105600
      4 C17         94.0870    -8.8030    11.0920 cc         1 IE7      -0.192000
      5 C18         94.6390    -9.3140     9.9190 cd         1 IE7      -0.054000
      6 C19         92.8860   -10.8510    11.6520 cd         1 IE7      -0.147000
      7 C20         93.4580   -11.3600    10.4500 cd         1 IE7      -0.034000
      8 C23         94.0890   -12.4660     8.7800 cc         1 IE7       0.588900
      9 C25         94.2040   -13.6270     7.8720 ca         1 IE7      -0.105900
     10 C26         94.9960   -13.5490     6.7010 ca         1 IE7      -0.073000
     11 C27         95.1090   -14.6500     5.8340 ca         1 IE7      -0.124000
     12 C28         94.4340   -15.8460     6.1210 ca         1 IE7      -0.097000
     13 N1          90.8060    -8.5050    16.3340 na         1 IE7       0.182800
     14 C2          91.6310    -8.2540    15.2220 cc         1 IE7      -0.157600
     15 C3          92.0370    -6.9220    15.4380 cd         1 IE7      -0.251600
     16 C4          91.4150    -6.5240    16.6470 cd         1 IE7       0.261900
     17 N5          90.6750    -7.4510    17.2000 nc         1 IE7      -0.510800
     18 C7          91.9230    -9.2620    14.1370 c          1 IE7       0.634700
     19 C8          92.9260    -5.9960    14.6550 c          1 IE7       0.667700
     20 N9          92.7490    -8.8720    13.1090 ns         1 IE7      -0.399100
     21 O10         91.4410   -10.3840    14.1710 o          1 IE7      -0.584100
     22 O11         93.4510    -6.3660    13.6130 o          1 IE7      -0.650100
     23 N12         92.9920    -4.7420    15.3460 nj         1 IE7      -0.400800
     24 C14         94.1250    -3.0880    14.7690 cy         1 IE7      -0.116400
     25 N21         94.2810   -10.6300     9.6410 na         1 IE7       0.280400
     26 N22         94.7110   -11.3100     8.5510 nd         1 IE7      -0.602100
     27 N24         93.3150   -12.5510     9.9200 nc         1 IE7      -0.406300
     28 C29         93.6450   -15.9400     7.2770 ca         1 IE7      -0.124000
     29 C30         93.5290   -14.8420     8.1470 ca         1 IE7      -0.073000
     30 H1          94.8980    -4.4610    16.3650 h1         1 IE7       0.062450
     31 H2          95.1040    -5.1040    14.6980 h1         1 IE7       0.062450
     32 H3          92.9210    -4.1340    13.1920 h1         1 IE7       0.062450
     33 H4          91.9290    -3.1420    14.3150 h1         1 IE7       0.062450
     34 H5          94.3270    -7.7800    11.3650 ha         1 IE7       0.149000
     35 H6          95.2960    -8.7980     9.2310 h4         1 IE7       0.162000
     36 H7          92.2410   -11.4810    12.2490 ha         1 IE7       0.176000
     37 H8          95.5300   -12.6340     6.4550 ha         1 IE7       0.131000
     38 H9          95.7220   -14.5740     4.9380 ha         1 IE7       0.112500
     39 H10         94.5220   -16.6970     5.4490 ha         1 IE7       0.110000
     40 H11         91.4790    -5.5670    17.1520 h4         1 IE7       0.045100
     41 H12         89.5270    -9.6380    17.5870 h1         1 IE7       0.072700
     42 H13         89.3870    -9.9880    15.8420 h1         1 IE7       0.072700
     43 H14         90.8080   -10.5710    16.7650 h1         1 IE7       0.072700
     44 H15         93.0690    -7.9200    13.2160 hn         1 IE7       0.382500
     45 H16         93.9450    -2.3170    15.5260 hc         1 IE7       0.066200
     46 H17         94.8180    -2.6970    14.0160 hc         1 IE7       0.066200
     47 H18         93.1210   -16.8670     7.5010 ha         1 IE7       0.112500
     48 H19         92.9100   -14.9460     9.0350 ha         1 IE7       0.131000
     49 C6          90.0880    -9.7520    16.6510 c3         1 IE7       0.067900
@<TRIPOS>BOND
     1     1    23 1   
     2     1    24 1   
     3     1    30 1   
     4     1    31 1   
     5     2    23 1   
     6     2    24 1   
     7     2    32 1   
     8     2    33 1   
     9     3     4 1   
    10     3     6 2   
    11     3    20 1   
    12     4     5 2   
    13     4    34 1   
    14     5    25 1   
    15     5    35 1   
    16     6     7 1   
    17     6    36 1   
    18     7    25 1   
    19     7    27 2   
    20     8     9 1   
    21     8    26 2   
    22     8    27 1   
    23     9    10 ar  
    24     9    29 ar  
    25    10    11 ar  
    26    10    37 1   
    27    11    12 ar  
    28    11    38 1   
    29    12    28 ar  
    30    12    39 1   
    31    13    14 1   
    32    13    17 1   
    33    13    49 1   
    34    14    15 2   
    35    14    18 1   
    36    15    16 1   
    37    15    19 1   
    38    16    17 2   
    39    16    40 1   
    40    18    20 1   
    41    18    21 2   
    42    19    22 2   
    43    19    23 1   
    44    20    44 1   
    45    24    45 1   
    46    24    46 1   
    47    25    26 1   
    48    28    29 ar  
    49    28    47 1   
    50    29    48 1   
    51    41    49 1   
    52    42    49 1   
    53    43    49 1   
@<TRIPOS>SUBSTRUCTURE
     1 IE7         1 TEMP              0 ****  ****    0 ROOT
