@<TRIPOS>MOLECULE
IE8
   50    54     1     0     0
SMALL
No Charge or Current Charge


@<TRIPOS>ATOM
      1 C            4.5470     1.3430     2.6030 c3         1 IE8       0.145800
      2 N            4.1950     1.7360     4.0000 n8         1 IE8      -0.992200
      3 O            2.6360    -0.1050     2.1650 os         1 IE8      -0.341100
      4 C1           3.3250     1.0690     1.6720 c3         1 IE8       0.226600
      5 N1          -0.2060    -2.3530     1.5620 nb         1 IE8      -0.670000
      6 O1          -3.7320    -3.9490     0.0630 os         1 IE8      -0.239000
      7 C2           1.4410    -0.5600     1.6300 ca         1 IE8       0.065100
      8 N2          -1.7830     1.7540    -2.5060 na         1 IE8      -0.325400
      9 C3           0.9420    -1.8130     2.0370 ca         1 IE8       0.331900
     10 N3          -4.0730     2.3750    -1.8570 nb         1 IE8      -0.685000
     11 C4          -0.9280    -1.6520     0.6500 ca         1 IE8       0.434500
     12 C5          -2.1100    -2.3520     0.1130 cc         1 IE8      -0.228500
     13 C6          -2.8890    -2.1660    -1.0530 cc         1 IE8      -0.157000
     14 C7          -3.8490    -3.1380    -1.0420 cd         1 IE8       0.106900
     15 C8          -2.6440    -3.4480     0.7450 cd         1 IE8       0.164900
     16 C9          -0.5130    -0.3630     0.2020 ca         1 IE8      -0.035800
     17 C10          0.6850     0.1820     0.7020 ca         1 IE8      -0.111000
     18 C11         -1.2990     0.4640    -0.7100 cc         1 IE8      -0.079400
     19 C12         -0.7780     0.9620    -1.8900 cd         1 IE8      -0.143100
     20 C13         -2.8940     1.7480    -1.6780 ca         1 IE8       0.364500
     21 C14         -5.0110     2.2160    -0.8860 ca         1 IE8       0.357900
     22 C15         -4.7990     1.4410     0.2750 ca         1 IE8      -0.197000
     23 C16         -3.5640     0.7930     0.4520 ca         1 IE8      -0.014000
     24 C17         -2.6260     0.9740    -0.5710 ca         1 IE8      -0.117800
     25 C18          3.7650     0.8310     0.2230 ca         1 IE8      -0.117300
     26 C19          3.5030     1.8040    -0.7640 ca         1 IE8      -0.092000
     27 C20          3.8960     1.5890    -2.0960 ca         1 IE8      -0.113500
     28 C21          4.5560     0.4020    -2.4530 ca         1 IE8      -0.102000
     29 C22          4.8260    -0.5700    -1.4750 ca         1 IE8      -0.113500
     30 C23          4.4330    -0.3570    -0.1420 ca         1 IE8      -0.092000
     31 H            5.1460     2.1520     2.1610 h1         1 IE8       0.044700
     32 HA           5.1790     0.4450     2.6390 h1         1 IE8       0.044700
     33 HN           5.0560     1.9620     4.5130 hn         1 IE8       0.394000
     34 HNA          3.6830     2.6260     3.9830 hn         1 IE8       0.394000
     35 H1           2.6630     1.9440     1.7150 h1         1 IE8       0.046700
     36 H3           1.4900    -2.4140     2.7610 h4         1 IE8       0.030100
     37 H6          -2.7440    -1.4200    -1.8270 ha         1 IE8       0.147000
     38 H7          -4.6400    -3.3610    -1.7470 h4         1 IE8       0.052100
     39 H8          -2.3620    -3.9520     1.6610 h4         1 IE8       0.062100
     40 H10          0.9940     1.1700     0.3770 ha         1 IE8       0.136000
     41 H12          0.2070     0.8170    -2.3290 h4         1 IE8       0.215000
     42 H14         -5.9600     2.7270    -1.0430 h4         1 IE8       0.017100
     43 H15         -5.5850     1.3500     1.0190 ha         1 IE8       0.122000
     44 H16         -3.3520     0.1840     1.3280 ha         1 IE8       0.128000
     45 H19          2.9930     2.7290    -0.5010 ha         1 IE8       0.116500
     46 H20          3.6880     2.3430    -2.8520 ha         1 IE8       0.113500
     47 H21          4.8600     0.2360    -3.4840 ha         1 IE8       0.114000
     48 H22          5.3380    -1.4900    -1.7490 ha         1 IE8       0.113500
     49 H23          4.6440    -1.1180     0.6060 ha         1 IE8       0.116500
     50 HN2         -1.7140     2.2530    -3.3840 hn         1 IE8       0.362000
@<TRIPOS>BOND
     1     1     2 1   
     2     1     4 1   
     3     1    31 1   
     4     1    32 1   
     5     2    33 1   
     6     2    34 1   
     7     3     4 1   
     8     3     7 1   
     9     4    25 1   
    10     4    35 1   
    11     5     9 ar  
    12     5    11 ar  
    13     6    14 1   
    14     6    15 1   
    15     7     9 ar  
    16     7    17 ar  
    17     8    19 1   
    18     8    20 1   
    19     8    50 1   
    20     9    36 1   
    21    10    20 ar  
    22    10    21 ar  
    23    11    12 1   
    24    11    16 ar  
    25    12    13 1   
    26    12    15 2   
    27    13    14 2   
    28    13    37 1   
    29    14    38 1   
    30    15    39 1   
    31    16    17 ar  
    32    16    18 1   
    33    17    40 1   
    34    18    19 2   
    35    18    24 1   
    36    19    41 1   
    37    20    24 ar  
    38    21    22 ar  
    39    21    42 1   
    40    22    23 ar  
    41    22    43 1   
    42    23    24 ar  
    43    23    44 1   
    44    25    26 ar  
    45    25    30 ar  
    46    26    27 ar  
    47    26    45 1   
    48    27    28 ar  
    49    27    46 1   
    50    28    29 ar  
    51    28    47 1   
    52    29    30 ar  
    53    29    48 1   
    54    30    49 1   
@<TRIPOS>SUBSTRUCTURE
     1 IE8         1 TEMP              0 ****  ****    0 ROOT
