@<TRIPOS>MOLECULE
IE8
   50    54     1     0     0
SMALL
abcg2


@<TRIPOS>ATOM
      1 C            4.0250     1.9550     1.5980 c3         1 IE8       0.145800
      2 N            2.9810     2.8360     2.0870 n8         1 IE8      -0.992200
      3 O            2.6070     0.0330     1.4940 os         1 IE8      -0.341100
      4 C1           3.4400     0.8760     0.6990 c3         1 IE8       0.226600
      5 N1           0.0300    -2.1150     0.2050 nb         1 IE8      -0.670000
      6 O1          -3.6580    -3.3270    -1.3000 os         1 IE8      -0.239000
      7 C2           1.4250    -0.3430     0.9560 ca         1 IE8       0.065100
      8 N2          -2.9310     2.9590    -0.7440 na         1 IE8      -0.325400
      9 C3           1.1680    -1.6890     0.7240 ca         1 IE8       0.331900
     10 N3          -5.0980     2.5940     0.1980 nb         1 IE8      -0.685000
     11 C4          -0.9290    -1.2460    -0.1120 ca         1 IE8       0.434500
     12 C5          -2.1140    -1.8240    -0.7520 cc         1 IE8      -0.228500
     13 C6          -2.9800    -1.2640    -1.7500 cc         1 IE8      -0.157000
     14 C7          -3.8870    -2.2210    -2.0410 cd         1 IE8       0.106900
     15 C8          -2.5830    -3.0810    -0.5320 cd         1 IE8       0.164900
     16 C9          -0.7900     0.1300     0.1440 ca         1 IE8      -0.035800
     17 C10          0.4190     0.5680     0.6760 ca         1 IE8      -0.111000
     18 C11         -1.8630     1.1000    -0.0830 cc         1 IE8      -0.079400
     19 C12         -1.7480     2.2820    -0.7660 cd         1 IE8      -0.143100
     20 C13         -3.8450     2.2390    -0.0360 ca         1 IE8       0.364500
     21 C14         -5.7970     1.7350     0.9260 ca         1 IE8       0.357900
     22 C15         -5.2840     0.5350     1.4310 ca         1 IE8      -0.197000
     23 C16         -3.9730     0.1800     1.1710 ca         1 IE8      -0.014000
     24 C17         -3.2100     1.0560     0.4040 ca         1 IE8      -0.117800
     25 C18          4.5140     0.0590     0.0250 ca         1 IE8      -0.117300
     26 C19          4.8750     0.3350    -1.2890 ca         1 IE8      -0.092000
     27 C20          5.8950    -0.3760    -1.9090 ca         1 IE8      -0.113500
     28 C21          6.5620    -1.3780    -1.2180 ca         1 IE8      -0.102000
     29 C22          6.2030    -1.6630     0.0940 ca         1 IE8      -0.113500
     30 C23          5.1860    -0.9490     0.7130 ca         1 IE8      -0.092000
     31 H            4.8120     2.4690     1.0310 h1         1 IE8       0.044700
     32 HA           4.5200     1.4760     2.4480 h1         1 IE8       0.044700
     33 HN           3.3450     3.4090     2.8370 hn         1 IE8       0.394000
     34 HNA          2.7120     3.4790     1.3530 hn         1 IE8       0.394000
     35 H1           2.8390     1.3690    -0.0760 h1         1 IE8       0.046700
     36 H3           1.9170    -2.4360     0.9670 h4         1 IE8       0.030100
     37 H6          -2.9200    -0.2870    -2.2000 ha         1 IE8       0.147000
     38 H7          -4.7190    -2.2580    -2.7250 h4         1 IE8       0.052100
     39 H8          -2.2620    -3.8710     0.1280 h4         1 IE8       0.062100
     40 H10          0.5590     1.6160     0.9120 ha         1 IE8       0.136000
     41 H12         -0.8930     2.6850    -1.2860 h4         1 IE8       0.215000
     42 H14         -6.8270     2.0040     1.1290 h4         1 IE8       0.017100
     43 H15         -5.9240    -0.1060     2.0220 ha         1 IE8       0.122000
     44 H16         -3.5600    -0.7460     1.5510 ha         1 IE8       0.128000
     45 H19          4.3530     1.1110    -1.8370 ha         1 IE8       0.116500
     46 H20          6.1610    -0.1510    -2.9340 ha         1 IE8       0.113500
     47 H21          7.3540    -1.9360    -1.7000 ha         1 IE8       0.114000
     48 H22          6.7160    -2.4450     0.6390 ha         1 IE8       0.113500
     49 H23          4.9150    -1.1850     1.7340 ha         1 IE8       0.116500
     50 HN2         -3.1010     3.8470    -1.1880 hn         1 IE8       0.362000
@<TRIPOS>BOND
     1     1     2 1   
     2     1     4 1   
     3     1    31 1   
     4     1    32 1   
     5     2    33 1   
     6     2    34 1   
     7     3     4 1   
     8     3     7 1   
     9     4    25 1   
    10     4    35 1   
    11     5     9 ar  
    12     5    11 ar  
    13     6    14 1   
    14     6    15 1   
    15     7     9 ar  
    16     7    17 ar  
    17     8    19 1   
    18     8    20 1   
    19     8    50 1   
    20     9    36 1   
    21    10    20 ar  
    22    10    21 ar  
    23    11    12 1   
    24    11    16 ar  
    25    12    13 1   
    26    12    15 2   
    27    13    14 2   
    28    13    37 1   
    29    14    38 1   
    30    15    39 1   
    31    16    17 ar  
    32    16    18 1   
    33    17    40 1   
    34    18    19 2   
    35    18    24 1   
    36    19    41 1   
    37    20    24 ar  
    38    21    22 ar  
    39    21    42 1   
    40    22    23 ar  
    41    22    43 1   
    42    23    24 ar  
    43    23    44 1   
    44    25    26 ar  
    45    25    30 ar  
    46    26    27 ar  
    47    26    45 1   
    48    27    28 ar  
    49    27    46 1   
    50    28    29 ar  
    51    28    47 1   
    52    29    30 ar  
    53    29    48 1   
    54    30    49 1   
@<TRIPOS>SUBSTRUCTURE
     1 IE8         1 TEMP              0 ****  ****    0 ROOT
