@<TRIPOS>MOLECULE
IEA
   51    54     1     0     0
SMALL
No Charge or Current Charge


@<TRIPOS>ATOM
      1 C1         -39.9280    -2.5420   -17.7580 c5         1 IEA       0.047400
      2 C3         -38.2940    -1.3230   -16.5770 c          1 IEA       0.619000
      3 C8         -37.0780    -3.1500   -15.3980 ca         1 IEA       0.041000
      4 C9         -36.8360    -2.5180   -14.1620 ca         1 IEA      -0.120000
      5 C10        -35.8290    -2.9880   -13.3010 ca         1 IEA       0.008500
      6 C11        -35.0510    -4.1040   -13.6700 ca         1 IEA      -0.287500
      7 C12        -35.2870    -4.7410   -14.9050 ca         1 IEA       0.008500
      8 C13        -36.2950    -4.2650   -15.7600 ca         1 IEA      -0.120000
      9 C15        -32.2580    -3.7570   -13.1010 c3         1 IEA       0.144000
     10 C22        -40.8130     0.8850   -17.0440 ca         1 IEA      -0.054300
     11 C24        -41.9740     1.2010   -14.9300 ca         1 IEA       0.353900
     12 N25        -42.5970     2.3170   -15.3630 nb         1 IEA      -0.652000
     13 C27        -41.4600     2.0640   -17.4980 ca         1 IEA      -0.073000
     14 C30        -42.7690     4.4110   -18.3700 ca         1 IEA      -0.103000
     15 C31        -41.8910     3.7400   -19.2310 ca         1 IEA      -0.099000
     16 C32        -41.2380     2.5750   -18.8010 ca         1 IEA      -0.104000
     17 C33        -39.7520    -2.8680   -19.2630 c3         1 IEA      -0.096600
     18 N2         -39.3870    -1.2080   -17.4270 n          1 IEA      -0.422800
     19 N4         -38.1110    -2.6680   -16.2770 n          1 IEA      -0.231000
     20 C5         -39.0410    -3.5070   -16.9040 c          1 IEA       0.567000
     21 O6         -39.1310    -4.7210   -16.7640 o          1 IEA      -0.478000
     22 O7         -37.6140    -0.3900   -16.1770 o          1 IEA      -0.518000
     23 S14        -33.7440    -4.7060   -12.5710 sy         1 IEA       1.014500
     24 F16        -31.9610    -3.9930   -14.4020 f          1 IEA      -0.099000
     25 F17        -32.4490    -2.4230   -12.9630 f          1 IEA      -0.099000
     26 F18        -31.1700    -4.0930   -12.3660 f          1 IEA      -0.099000
     27 O19        -34.0740    -4.2850   -11.2000 o          1 IEA      -0.468500
     28 O20        -33.5030    -6.1230   -12.8840 o          1 IEA      -0.468500
     29 C23        -41.0860     0.4660   -15.7250 ca         1 IEA      -0.151000
     30 C26        -41.4210    -2.6820   -17.3670 c3         1 IEA      -0.096600
     31 C28        -42.3500     2.7490   -16.6210 ca         1 IEA       0.267000
     32 C29        -42.9930     3.9160   -17.0760 ca         1 IEA      -0.076000
     33 H34        -37.4330    -1.6630   -13.8560 ha         1 IEA       0.138500
     34 H35        -35.6620    -2.4800   -12.3520 ha         1 IEA       0.147500
     35 H36        -34.6920    -5.6010   -15.2120 ha         1 IEA       0.147500
     36 H37        -36.4560    -4.7620   -16.7130 ha         1 IEA       0.138500
     37 H39        -38.9730     0.7240   -18.1560 h1         1 IEA       0.071700
     38 H38        -40.3490    -0.0830   -18.9070 h1         1 IEA       0.071700
     39 H41        -42.1950     0.8870   -13.9110 h4         1 IEA       0.021100
     40 H46        -43.2760     5.3150   -18.7030 ha         1 IEA       0.120000
     41 H47        -41.7140     4.1240   -20.2340 ha         1 IEA       0.116000
     42 H48        -40.5610     2.0840   -19.4950 ha         1 IEA       0.109000
     43 H49        -40.3560    -2.2050   -19.8940 hc         1 IEA       0.057533
     44 H51        -38.7060    -2.7580   -19.5730 hc         1 IEA       0.057533
     45 H50        -40.0560    -3.8990   -19.4850 hc         1 IEA       0.057533
     46 H40        -40.6250    -0.4180   -15.2990 ha         1 IEA       0.122000
     47 H42        -42.0470    -1.9680   -17.9150 hc         1 IEA       0.057533
     48 H43        -41.7970    -3.6890   -17.5830 hc         1 IEA       0.057533
     49 H44        -41.5690    -2.4990   -16.2960 hc         1 IEA       0.057533
     50 H45        -43.6730     4.4420   -16.4120 ha         1 IEA       0.134000
     51 C21        -39.8500     0.0980   -17.9470 c3         1 IEA       0.165300
@<TRIPOS>BOND
     1     1    17 1   
     2     1    18 1   
     3     1    20 1   
     4     1    30 1   
     5     2    18 1   
     6     2    19 1   
     7     2    22 2   
     8     3     4 ar  
     9     3     8 ar  
    10     3    19 1   
    11     4     5 ar  
    12     4    33 1   
    13     5     6 ar  
    14     5    34 1   
    15     6     7 ar  
    16     6    23 1   
    17     7     8 ar  
    18     7    35 1   
    19     8    36 1   
    20     9    23 1   
    21     9    24 1   
    22     9    25 1   
    23     9    26 1   
    24    10    13 ar  
    25    10    29 ar  
    26    10    51 1   
    27    11    12 ar  
    28    11    29 ar  
    29    11    39 1   
    30    12    31 ar  
    31    13    16 ar  
    32    13    31 ar  
    33    14    15 ar  
    34    14    32 ar  
    35    14    40 1   
    36    15    16 ar  
    37    15    41 1   
    38    16    42 1   
    39    17    43 1   
    40    17    44 1   
    41    17    45 1   
    42    18    51 1   
    43    19    20 1   
    44    20    21 2   
    45    23    27 2   
    46    23    28 2   
    47    29    46 1   
    48    30    47 1   
    49    30    48 1   
    50    30    49 1   
    51    31    32 ar  
    52    32    50 1   
    53    37    51 1   
    54    38    51 1   
@<TRIPOS>SUBSTRUCTURE
     1 IEA         1 TEMP              0 ****  ****    0 ROOT
