@<TRIPOS>MOLECULE
IEA
   51    54     1     0     0
SMALL
abcg2


@<TRIPOS>ATOM
      1 C1         -39.9730    -2.5940   -17.7350 c5         1 IEA       0.047400
      2 C3         -38.3260    -1.3400   -16.6400 c          1 IEA       0.619000
      3 C8         -37.0980    -3.1480   -15.4730 ca         1 IEA       0.041000
      4 C9         -37.0070    -2.6310   -14.1850 ca         1 IEA      -0.120000
      5 C10        -36.0160    -3.0800   -13.3330 ca         1 IEA       0.008500
      6 C11        -35.1330    -4.0530   -13.7860 ca         1 IEA      -0.287500
      7 C12        -35.2180    -4.5800   -15.0670 ca         1 IEA       0.008500
      8 C13        -36.2080    -4.1180   -15.9160 ca         1 IEA      -0.120000
      9 C15        -32.5070    -3.4370   -13.0380 c3         1 IEA       0.144000
     10 C22        -40.7570     0.7750   -17.0160 ca         1 IEA      -0.054300
     11 C24        -41.7720     1.2410   -14.8910 ca         1 IEA       0.353900
     12 N25        -42.3180     2.3590   -15.2790 nb         1 IEA      -0.652000
     13 C27        -41.3370     1.9910   -17.4770 ca         1 IEA      -0.073000
     14 C30        -42.5370     4.4000   -18.2730 ca         1 IEA      -0.103000
     15 C31        -41.7670     3.6520   -19.1840 ca         1 IEA      -0.099000
     16 C32        -41.1800     2.4770   -18.7970 ca         1 IEA      -0.104000
     17 C33        -39.8160    -2.9290   -19.2180 c3         1 IEA      -0.096600
     18 N2         -39.4260    -1.2820   -17.4140 n          1 IEA      -0.422800
     19 N4         -38.1170    -2.6960   -16.3320 n          1 IEA      -0.231000
     20 C5         -39.0630    -3.5000   -16.9210 c          1 IEA       0.567000
     21 O6         -39.1480    -4.6950   -16.8090 o          1 IEA      -0.478000
     22 O7         -37.6240    -0.4330   -16.2640 o          1 IEA      -0.518000
     23 S14        -33.8760    -4.6390   -12.7020 sy         1 IEA       1.014500
     24 F16        -32.1390    -3.5230   -14.3040 f          1 IEA      -0.099000
     25 F17        -32.9220    -2.2070   -12.7840 f          1 IEA      -0.099000
     26 F18        -31.4840    -3.7310   -12.2550 f          1 IEA      -0.099000
     27 O19        -34.2560    -4.4170   -11.3200 o          1 IEA      -0.468500
     28 O20        -33.3870    -5.9270   -13.1560 o          1 IEA      -0.468500
     29 C23        -40.9840     0.4140   -15.7180 ca         1 IEA      -0.151000
     30 C26        -41.4210    -2.7470   -17.2840 c3         1 IEA      -0.096600
     31 C28        -42.1140     2.7470   -16.5620 ca         1 IEA       0.267000
     32 C29        -42.7060     3.9570   -16.9900 ca         1 IEA      -0.076000
     33 H34        -37.7160    -1.8930   -13.8380 ha         1 IEA       0.138500
     34 H35        -35.9550    -2.6860   -12.3280 ha         1 IEA       0.147500
     35 H36        -34.5310    -5.3410   -15.4110 ha         1 IEA       0.147500
     36 H37        -36.2740    -4.5060   -16.9230 ha         1 IEA       0.138500
     37 H39        -39.0730     0.5560   -18.3090 h1         1 IEA       0.071700
     38 H38        -40.4990    -0.2830   -18.8530 h1         1 IEA       0.071700
     39 H41        -41.9440     0.9430   -13.8620 h4         1 IEA       0.021100
     40 H46        -42.9960     5.3260   -18.5920 ha         1 IEA       0.120000
     41 H47        -41.6380     4.0100   -20.1970 ha         1 IEA       0.116000
     42 H48        -40.5920     1.9220   -19.5160 ha         1 IEA       0.109000
     43 H49        -40.4530    -2.2830   -19.8230 hc         1 IEA       0.057533
     44 H51        -38.7840    -2.8060   -19.5480 hc         1 IEA       0.057533
     45 H50        -40.1210    -3.9580   -19.4010 hc         1 IEA       0.057533
     46 H40        -40.5810    -0.4970   -15.2990 ha         1 IEA       0.122000
     47 H42        -42.0580    -2.0480   -17.8260 hc         1 IEA       0.057533
     48 H43        -41.7740    -3.7550   -17.4980 hc         1 IEA       0.057533
     49 H44        -41.5340    -2.5610   -16.2170 hc         1 IEA       0.057533
     50 H45        -43.2950     4.5180   -16.2760 ha         1 IEA       0.134000
     51 C21        -39.9170    -0.0460   -17.9610 c3         1 IEA       0.165300
@<TRIPOS>BOND
     1     1    17 1   
     2     1    18 1   
     3     1    20 1   
     4     1    30 1   
     5     2    18 1   
     6     2    19 1   
     7     2    22 2   
     8     3     4 ar  
     9     3     8 ar  
    10     3    19 1   
    11     4     5 ar  
    12     4    33 1   
    13     5     6 ar  
    14     5    34 1   
    15     6     7 ar  
    16     6    23 1   
    17     7     8 ar  
    18     7    35 1   
    19     8    36 1   
    20     9    23 1   
    21     9    24 1   
    22     9    25 1   
    23     9    26 1   
    24    10    13 ar  
    25    10    29 ar  
    26    10    51 1   
    27    11    12 ar  
    28    11    29 ar  
    29    11    39 1   
    30    12    31 ar  
    31    13    16 ar  
    32    13    31 ar  
    33    14    15 ar  
    34    14    32 ar  
    35    14    40 1   
    36    15    16 ar  
    37    15    41 1   
    38    16    42 1   
    39    17    43 1   
    40    17    44 1   
    41    17    45 1   
    42    18    51 1   
    43    19    20 1   
    44    20    21 2   
    45    23    27 2   
    46    23    28 2   
    47    29    46 1   
    48    30    47 1   
    49    30    48 1   
    50    30    49 1   
    51    31    32 ar  
    52    32    50 1   
    53    37    51 1   
    54    38    51 1   
@<TRIPOS>SUBSTRUCTURE
     1 IEA         1 TEMP              0 ****  ****    0 ROOT
