@<TRIPOS>MOLECULE
IEB
   43    46     1     0     0
SMALL
No Charge or Current Charge


@<TRIPOS>ATOM
      1 C11         92.0380    -4.9830    16.0970 c3         1 IEB       0.071900
      2 C13         93.2030   -11.7780    11.2660 cc         1 IEB       0.385800
      3 C15         94.8730   -12.2800     9.8840 cc         1 IEB      -0.202000
      4 C16         93.6580   -12.5380     9.2960 cd         1 IEB       0.294500
      5 C19         93.4290   -13.0740     7.9360 ca         1 IEB      -0.099500
      6 C20         92.1180   -13.2930     7.4550 ca         1 IEB      -0.096000
      7 C21         91.9020   -13.8020     6.1620 ca         1 IEB      -0.115000
      8 C22         92.9930   -14.1010     5.3320 ca         1 IEB      -0.111000
      9 C23         94.3010   -13.8890     5.7960 ca         1 IEB      -0.115000
     10 C24         94.5180   -13.3800     7.0880 ca         1 IEB      -0.096000
     11 C1          90.8520    -9.2170    15.7350 ca         1 IEB       0.195300
     12 N2          91.1000    -7.9160    16.0120 nb         1 IEB      -0.200000
     13 C3          92.1730    -9.2730    13.8390 ca         1 IEB       0.423300
     14 N4          91.3490    -9.9270    14.6940 nb         1 IEB      -0.310000
     15 O5          92.7230    -9.9210    12.7520 os         1 IEB      -0.435300
     16 C6          92.4770    -7.9100    14.0630 ca         1 IEB      -0.053600
     17 C7          91.9210    -7.2840    15.1530 ca         1 IEB       0.108500
     18 N8          92.3930    -6.0060    15.1010 na         1 IEB      -0.273300
     19 C9          93.2230    -5.8820    13.9860 cc         1 IEB       0.400700
     20 N10         93.2970    -7.0490    13.3180 nd         1 IEB      -0.518100
     21 C12         92.4600   -11.3240    12.5060 c3         1 IEB       0.144300
     22 N14         94.5820   -11.7980    11.1420 na         1 IEB      -0.142500
     23 N17         92.6270   -12.2280    10.1600 nd         1 IEB      -0.651000
     24 H27         92.5340    -4.0340    15.8530 h1         1 IEB       0.057700
     25 H28         90.9520    -4.8310    16.1000 h1         1 IEB       0.057700
     26 H29         92.3600    -5.3100    17.0940 h1         1 IEB       0.057700
     27 H32         95.8830   -12.3990     9.5160 h4         1 IEB       0.158000
     28 H33         96.5790   -11.6040    11.8090 h1         1 IEB       0.058033
     29 H34         95.4740   -10.2970    12.3270 h1         1 IEB       0.058033
     30 H35         95.3770   -11.9100    13.0960 h1         1 IEB       0.058033
     31 H36         91.2570   -13.0690     8.0810 ha         1 IEB       0.118000
     32 H37         90.8880   -13.9650     5.8050 ha         1 IEB       0.109500
     33 H38         92.8260   -14.4950     4.3320 ha         1 IEB       0.110000
     34 H39         95.1480   -14.1200     5.1540 ha         1 IEB       0.109500
     35 H40         95.5410   -13.2250     7.4220 ha         1 IEB       0.118000
     36 H42         89.2190    -9.2820    17.1670 hc         1 IEB       0.060367
     37 H43         89.3610   -10.7360    16.1720 hc         1 IEB       0.060367
     38 H41         90.5170   -10.4460    17.4840 hc         1 IEB       0.060367
     39 H26         93.7220    -4.9560    13.7270 h5         1 IEB       0.067800
     40 H30         92.7870   -11.9370    13.3550 h1         1 IEB       0.074700
     41 H31         91.3860   -11.4970    12.3590 h1         1 IEB       0.074700
     42 C25         89.9370    -9.9600    16.6900 c3         1 IEB      -0.133400
     43 C18         95.5630   -11.3770    12.1550 c3         1 IEB       0.056900
@<TRIPOS>BOND
     1     1    18 1   
     2     1    24 1   
     3     1    25 1   
     4     1    26 1   
     5     2    21 1   
     6     2    22 1   
     7     2    23 2   
     8     3     4 2   
     9     3    22 1   
    10     3    27 1   
    11     4     5 1   
    12     4    23 1   
    13     5     6 ar  
    14     5    10 ar  
    15     6     7 ar  
    16     6    31 1   
    17     7     8 ar  
    18     7    32 1   
    19     8     9 ar  
    20     8    33 1   
    21     9    10 ar  
    22     9    34 1   
    23    10    35 1   
    24    11    12 ar  
    25    11    14 ar  
    26    11    42 1   
    27    12    17 ar  
    28    13    14 ar  
    29    13    15 1   
    30    13    16 ar  
    31    15    21 1   
    32    16    17 ar  
    33    16    20 1   
    34    17    18 1   
    35    18    19 1   
    36    19    20 2   
    37    19    39 1   
    38    21    40 1   
    39    21    41 1   
    40    22    43 1   
    41    28    43 1   
    42    29    43 1   
    43    30    43 1   
    44    36    42 1   
    45    37    42 1   
    46    38    42 1   
@<TRIPOS>SUBSTRUCTURE
     1 IEB         1 TEMP              0 ****  ****    0 ROOT
