@<TRIPOS>MOLECULE
IEB
   43    46     1     0     0
SMALL
abcg2


@<TRIPOS>ATOM
      1 C11         91.9640    -5.0510    15.9930 c3         1 IEB       0.071900
      2 C13         93.1840   -11.7700    11.3120 cc         1 IEB       0.385800
      3 C15         94.8500   -12.2910    10.0020 cc         1 IEB      -0.202000
      4 C16         93.6550   -12.5210     9.3660 cd         1 IEB       0.294500
      5 C19         93.4250   -13.0300     8.0140 ca         1 IEB      -0.099500
      6 C20         92.1330   -13.0850     7.4850 ca         1 IEB      -0.096000
      7 C21         91.9120   -13.5570     6.2000 ca         1 IEB      -0.115000
      8 C22         92.9750   -13.9850     5.4150 ca         1 IEB      -0.111000
      9 C23         94.2640   -13.9380     5.9330 ca         1 IEB      -0.115000
     10 C24         94.4860   -13.4670     7.2170 ca         1 IEB      -0.096000
     11 C1          90.9910    -9.2670    15.6620 ca         1 IEB       0.195300
     12 N2          91.1790    -7.9890    15.9350 nb         1 IEB      -0.200000
     13 C3          92.2220    -9.2850    13.7170 ca         1 IEB       0.423300
     14 N4          91.4810    -9.9230    14.5950 nb         1 IEB      -0.310000
     15 O5          92.7130    -9.9080    12.6580 os         1 IEB      -0.435300
     16 C6          92.4980    -7.9260    13.8940 ca         1 IEB      -0.053600
     17 C7          91.9290    -7.3640    15.0330 ca         1 IEB       0.108500
     18 N8          92.3070    -6.0590    15.0170 na         1 IEB      -0.273300
     19 C9          93.0680    -5.9010    13.8960 cc         1 IEB       0.400700
     20 N10         93.2100    -6.9890    13.1940 nd         1 IEB      -0.518100
     21 C12         92.4460   -11.3070    12.5120 c3         1 IEB       0.144300
     22 N14         94.5360   -11.8220    11.2390 na         1 IEB      -0.142500
     23 N17         92.6290   -12.1850    10.2020 nd         1 IEB      -0.651000
     24 H27         92.4100    -4.1070    15.6940 h1         1 IEB       0.057700
     25 H28         90.8850    -4.9280    16.0500 h1         1 IEB       0.057700
     26 H29         92.3440    -5.3260    16.9750 h1         1 IEB       0.057700
     27 H32         95.8740   -12.4140     9.6890 h4         1 IEB       0.158000
     28 H33         96.4360   -11.8810    12.0710 h1         1 IEB       0.058033
     29 H34         95.6280   -10.3120    12.2100 h1         1 IEB       0.058033
     30 H35         95.1330   -11.6690    13.2380 h1         1 IEB       0.058033
     31 H36         91.2970   -12.7510     8.0840 ha         1 IEB       0.118000
     32 H37         90.9030   -13.5880     5.8090 ha         1 IEB       0.109500
     33 H38         92.8020   -14.3530     4.4120 ha         1 IEB       0.110000
     34 H39         95.1020   -14.2720     5.3340 ha         1 IEB       0.109500
     35 H40         95.4990   -13.4450     7.6000 ha         1 IEB       0.118000
     36 H42         89.7930    -9.4700    17.4250 hc         1 IEB       0.060367
     37 H43         89.3190   -10.5270    16.0870 hc         1 IEB       0.060367
     38 H41         90.7560   -10.8990    17.0200 hc         1 IEB       0.060367
     39 H26         93.4960    -4.9400    13.6480 h5         1 IEB       0.067800
     40 H30         92.7580   -11.8440    13.4120 h1         1 IEB       0.074700
     41 H31         91.3810   -11.4870    12.3650 h1         1 IEB       0.074700
     42 C25         90.1660   -10.0800    16.6070 c3         1 IEB      -0.133400
     43 C18         95.4830   -11.3900    12.2460 c3         1 IEB       0.056900
@<TRIPOS>BOND
     1     1    18 1   
     2     1    24 1   
     3     1    25 1   
     4     1    26 1   
     5     2    21 1   
     6     2    22 1   
     7     2    23 2   
     8     3     4 2   
     9     3    22 1   
    10     3    27 1   
    11     4     5 1   
    12     4    23 1   
    13     5     6 ar  
    14     5    10 ar  
    15     6     7 ar  
    16     6    31 1   
    17     7     8 ar  
    18     7    32 1   
    19     8     9 ar  
    20     8    33 1   
    21     9    10 ar  
    22     9    34 1   
    23    10    35 1   
    24    11    12 ar  
    25    11    14 ar  
    26    11    42 1   
    27    12    17 ar  
    28    13    14 ar  
    29    13    15 1   
    30    13    16 ar  
    31    15    21 1   
    32    16    17 ar  
    33    16    20 1   
    34    17    18 1   
    35    18    19 1   
    36    19    20 2   
    37    19    39 1   
    38    21    40 1   
    39    21    41 1   
    40    22    43 1   
    41    28    43 1   
    42    29    43 1   
    43    30    43 1   
    44    36    42 1   
    45    37    42 1   
    46    38    42 1   
@<TRIPOS>SUBSTRUCTURE
     1 IEB         1 TEMP              0 ****  ****    0 ROOT
