@<TRIPOS>MOLECULE
IEC
   52    54     1     0     0
SMALL
bcc


@<TRIPOS>ATOM
      1 C1           6.0890    15.3430    51.1720 c6         1 IEC       0.190200
      2 C2           5.0160    14.3450    50.7200 c6         1 IEC       0.093100
      3 C3           5.7050    13.2030    49.9780 c6         1 IEC       0.118100
      4 C4           6.5910    13.7330    48.8550 c6         1 IEC       0.128100
      5 C5           7.5480    14.7650    49.4350 c6         1 IEC       0.137100
      6 C6           8.4480    15.3940    48.3950 c3         1 IEC       0.150400
      7 O2           4.3400    13.7740    51.8100 oh         1 IEC      -0.604800
      8 O3           4.7800    12.3080    49.4150 oh         1 IEC      -0.605800
      9 O4           5.8430    14.3330    47.8270 oh         1 IEC      -0.587800
     10 O5           6.8320    15.8040    50.0820 os         1 IEC      -0.364600
     11 O6           9.4260    16.1560    49.0620 oh         1 IEC      -0.597800
     12 C8           9.2680    17.9600    57.3620 c2         1 IEC      -0.201000
     13 C61          8.3280    18.0960    55.1040 ca         1 IEC      -0.039800
     14 C01          6.9820    17.9200    55.4220 ca         1 IEC      -0.121000
     15 C21          6.0720    17.4910    54.4680 ca         1 IEC      -0.102000
     16 C31          6.4890    17.2490    53.1630 ca         1 IEC       0.014900
     17 C41          7.8250    17.4510    52.8220 ca         1 IEC      -0.102000
     18 C51          8.7290    17.8610    53.7870 ca         1 IEC      -0.121000
     19 C9          10.3490    19.4770    55.7600 ca         1 IEC      -0.095800
     20 C10         10.0400    20.5800    54.9690 ca         1 IEC      -0.077500
     21 C11         10.9900    21.5380    54.6430 ca         1 IEC      -0.193000
     22 C14         11.6680    19.3520    56.2070 ca         1 IEC      -0.077500
     23 C13         12.6280    20.2920    55.8880 ca         1 IEC      -0.193000
     24 C12         12.2980    21.3990    55.1030 ca         1 IEC       0.145100
     25 O7          13.2950    22.2620    54.8380 os         1 IEC      -0.317900
     26 CM          13.0090    23.4090    54.0630 c3         1 IEC       0.125700
     27 S1           5.2820    16.7580    51.9670 ss         1 IEC      -0.248000
     28 H1           6.7350    14.8630    51.9230 h2         1 IEC       0.067700
     29 H2           4.3260    14.8550    50.0330 h1         1 IEC       0.072700
     30 H3           6.3620    12.6920    50.7000 h1         1 IEC       0.048700
     31 H4           7.1940    12.8960    48.4720 h1         1 IEC       0.049700
     32 H5           8.1830    14.2400    50.1670 h1         1 IEC       0.050700
     33 H61          7.8520    16.0070    47.7090 h1         1 IEC       0.039700
     34 H62          8.8960    14.5860    47.8020 h1         1 IEC       0.039700
     35 HO2          3.7560    14.4330    52.1990 ho         1 IEC       0.427000
     36 HO3          4.1460    12.0540    50.0940 ho         1 IEC       0.431000
     37 HO4          5.1750    13.7030    47.5360 ho         1 IEC       0.423000
     38 HO6          9.9410    16.6290    48.4020 ho         1 IEC       0.408000
     39 H12          9.9560    18.2650    58.1400 ha         1 IEC       0.119000
     40 H13          8.5440    17.2000    57.6250 ha         1 IEC       0.119000
     41 H14          6.6350    18.1210    56.4270 ha         1 IEC       0.139000
     42 H15          5.0350    17.3440    54.7430 ha         1 IEC       0.150500
     43 H16          8.1660    17.2870    51.8090 ha         1 IEC       0.150500
     44 H17          9.7660    17.9980    53.5070 ha         1 IEC       0.139000
     45 H18          9.0290    20.7120    54.6020 ha         1 IEC       0.135000
     46 H19         10.6910    22.3790    54.0330 ha         1 IEC       0.140500
     47 H20         11.9530    18.4920    56.8010 ha         1 IEC       0.135000
     48 H21         13.6460    20.1700    56.2360 ha         1 IEC       0.140500
     49 H22         13.9380    23.9670    53.9820 h1         1 IEC       0.041367
     50 H23         12.6670    23.1490    53.0580 h1         1 IEC       0.041367
     51 H24         12.2570    24.0450    54.5370 h1         1 IEC       0.041367
     52 C7           9.3140    18.4910    56.1360 ce         1 IEC      -0.002400
@<TRIPOS>BOND
     1     1     2 1   
     2     1    10 1   
     3     1    27 1   
     4     1    28 1   
     5     2     3 1   
     6     2     7 1   
     7     2    29 1   
     8     3     4 1   
     9     3     8 1   
    10     3    30 1   
    11     4     5 1   
    12     4     9 1   
    13     4    31 1   
    14     5     6 1   
    15     5    10 1   
    16     5    32 1   
    17     6    11 1   
    18     6    33 1   
    19     6    34 1   
    20     7    35 1   
    21     8    36 1   
    22     9    37 1   
    23    11    38 1   
    24    12    39 1   
    25    12    40 1   
    26    12    52 2   
    27    13    14 ar  
    28    13    18 ar  
    29    13    52 1   
    30    14    15 ar  
    31    14    41 1   
    32    15    16 ar  
    33    15    42 1   
    34    16    17 ar  
    35    16    27 1   
    36    17    18 ar  
    37    17    43 1   
    38    18    44 1   
    39    19    20 ar  
    40    19    22 ar  
    41    19    52 1   
    42    20    21 ar  
    43    20    45 1   
    44    21    24 ar  
    45    21    46 1   
    46    22    23 ar  
    47    22    47 1   
    48    23    24 ar  
    49    23    48 1   
    50    24    25 1   
    51    25    26 1   
    52    26    49 1   
    53    26    50 1   
    54    26    51 1   
@<TRIPOS>SUBSTRUCTURE
     1 IEC         1 TEMP              0 ****  ****    0 ROOT
