@<TRIPOS>MOLECULE
IEC
   52    54     1     0     0
SMALL
No Charge or Current Charge


@<TRIPOS>ATOM
      1 C1           6.1320    14.9630    51.4580 c6         1 IEC       0.261300
      2 C2           5.2740    13.9520    50.6260 c6         1 IEC       0.116300
      3 C3           6.1580    13.3050    49.5130 c6         1 IEC       0.141300
      4 C4           6.8580    14.3910    48.6410 c6         1 IEC       0.151300
      5 C5           7.6220    15.3740    49.5870 c6         1 IEC       0.160300
      6 C6           8.3220    16.5380    48.8120 c3         1 IEC       0.173600
      7 O2           4.6910    12.9100    51.4480 oh         1 IEC      -0.727000
      8 O3           5.3520    12.4390    48.6930 oh         1 IEC      -0.668000
      9 O4           5.8670    15.0540    47.8280 oh         1 IEC      -0.710000
     10 O5           6.7190    15.9420    50.5720 os         1 IEC      -0.411000
     11 O6           9.0870    17.4110    49.6690 oh         1 IEC      -0.720000
     12 C8           8.8110    18.8270    57.7860 c2         1 IEC      -0.301000
     13 C61          8.0730    18.0950    55.5310 ca         1 IEC      -0.039800
     14 C01          6.6830    18.1030    55.7600 ca         1 IEC      -0.103000
     15 C21          5.8140    17.4150    54.8960 ca         1 IEC      -0.084000
     16 C31          6.3140    16.7050    53.7900 ca         1 IEC      -0.112000
     17 C41          7.7060    16.6940    53.5570 ca         1 IEC      -0.084000
     18 C51          8.5740    17.3840    54.4220 ca         1 IEC      -0.103000
     19 C9          10.1540    19.5530    55.8300 ca         1 IEC      -0.095800
     20 C10          9.9820    20.2690    54.6270 ca         1 IEC      -0.059500
     21 C11         11.0600    20.9570    54.0420 ca         1 IEC      -0.175000
     22 C14         11.4240    19.5390    56.4410 ca         1 IEC      -0.059500
     23 C13         12.5020    20.2260    55.8560 ca         1 IEC      -0.175000
     24 C12         12.3290    20.9360    54.6590 ca         1 IEC       0.145100
     25 O7          13.4240    21.5910    54.1320 os         1 IEC      -0.341100
     26 CM          13.3520    22.3460    52.9100 c3         1 IEC       0.148900
     27 S1           5.1270    15.8460    52.7420 ss         1 IEC      -0.169000
     28 H1           6.9220    14.4140    51.9920 h2         1 IEC       0.067700
     29 H2           4.4750    14.5300    50.1370 h1         1 IEC       0.072700
     30 H3           6.9440    12.7150    50.0080 h1         1 IEC       0.048700
     31 H4           7.5950    13.8900    47.9940 h1         1 IEC       0.049700
     32 H5           8.4060    14.8140    50.1170 h1         1 IEC       0.050700
     33 H61          7.5510    17.1130    48.2820 h1         1 IEC       0.039700
     34 H62          8.9760    16.0930    48.0500 h1         1 IEC       0.039700
     35 HO2          4.0720    13.3450    52.0820 ho         1 IEC       0.526000
     36 HO3          4.7940    11.9380    49.3330 ho         1 IEC       0.470000
     37 HO4          5.2500    14.3300    47.5610 ho         1 IEC       0.522000
     38 HO6          9.4070    18.1560    49.1080 ho         1 IEC       0.507000
     39 H12          9.4740    19.3660    58.4610 ha         1 IEC       0.169000
     40 H13          7.9840    18.2910    58.2490 ha         1 IEC       0.169000
     41 H14          6.2710    18.6530    56.6020 ha         1 IEC       0.121000
     42 H15          4.7430    17.4350    55.0880 ha         1 IEC       0.132500
     43 H16          8.1360    16.1620    52.7150 ha         1 IEC       0.132500
     44 H17          9.6440    17.3590    54.2300 ha         1 IEC       0.121000
     45 H18          9.0070    20.2980    54.1460 ha         1 IEC       0.117000
     46 H19         10.8900    21.4980    53.1160 ha         1 IEC       0.122500
     47 H20         11.5830    18.9850    57.3640 ha         1 IEC       0.117000
     48 H21         13.4790    20.2060    56.3330 ha         1 IEC       0.122500
     49 H22         14.3300    22.7820    52.6740 h1         1 IEC       0.041367
     50 H23         13.0550    21.7030    52.0710 h1         1 IEC       0.041367
     51 H24         12.6270    23.1660    53.0000 h1         1 IEC       0.041367
     52 C7           9.0030    18.8250    56.4480 ce         1 IEC      -0.002400
@<TRIPOS>BOND
     1     1     2 1   
     2     1    10 1   
     3     1    27 1   
     4     1    28 1   
     5     2     3 1   
     6     2     7 1   
     7     2    29 1   
     8     3     4 1   
     9     3     8 1   
    10     3    30 1   
    11     4     5 1   
    12     4     9 1   
    13     4    31 1   
    14     5     6 1   
    15     5    10 1   
    16     5    32 1   
    17     6    11 1   
    18     6    33 1   
    19     6    34 1   
    20     7    35 1   
    21     8    36 1   
    22     9    37 1   
    23    11    38 1   
    24    12    39 1   
    25    12    40 1   
    26    12    52 2   
    27    13    14 ar  
    28    13    18 ar  
    29    13    52 1   
    30    14    15 ar  
    31    14    41 1   
    32    15    16 ar  
    33    15    42 1   
    34    16    17 ar  
    35    16    27 1   
    36    17    18 ar  
    37    17    43 1   
    38    18    44 1   
    39    19    20 ar  
    40    19    22 ar  
    41    19    52 1   
    42    20    21 ar  
    43    20    45 1   
    44    21    24 ar  
    45    21    46 1   
    46    22    23 ar  
    47    22    47 1   
    48    23    24 ar  
    49    23    48 1   
    50    24    25 1   
    51    25    26 1   
    52    26    49 1   
    53    26    50 1   
    54    26    51 1   
@<TRIPOS>SUBSTRUCTURE
     1 IEC         1 TEMP              0 ****  ****    0 ROOT
