@<TRIPOS>MOLECULE
IED
   47    50     1     0     0
SMALL
bcc


@<TRIPOS>ATOM
      1 C1         -41.1970     1.9090   -17.7510 ca         1 IED      -0.203100
      2 C2         -40.6590     0.7260   -17.2350 ca         1 IED      -0.018300
      3 C3         -40.9230     0.4560   -15.9040 ca         1 IED      -0.263300
      4 C8         -41.9210     3.7090   -18.8630 cc         1 IED      -0.098100
      5 C9         -41.1850     2.5690   -19.0160 cd         1 IED      -0.192200
      6 C10        -39.8370    -0.1570   -18.1360 c3         1 IED       0.168300
      7 C12        -39.9770    -2.6890   -17.7810 c5         1 IED       0.045400
      8 C13        -39.1020    -3.5800   -16.9130 c          1 IED       0.709500
      9 C15        -38.2820    -1.4400   -16.7630 c          1 IED       0.827500
     10 C16        -37.1090    -3.2220   -15.5010 ca         1 IED       0.100600
     11 C19        -35.1340    -4.0980   -13.7790 ca         1 IED      -0.022100
     12 C20        -36.0090    -3.0970   -13.3730 ca         1 IED      -0.055500
     13 C21        -37.0030    -2.6630   -14.2340 ca         1 IED      -0.132000
     14 O28        -37.5450    -0.5400   -16.4380 o          1 IED      -0.597500
     15 C30        -39.8310    -3.1170   -19.2410 c3         1 IED      -0.095100
     16 F24        -32.8030    -2.3320   -12.9500 f          1 IED      -0.218633
     17 C23        -32.5420    -3.6240   -13.1410 c3         1 IED       0.737000
     18 F25        -31.4860    -3.9470   -12.3980 f          1 IED      -0.218633
     19 F26        -32.2110    -3.7650   -14.4240 f          1 IED      -0.218633
     20 S22        -33.9010    -4.6950   -12.6540 ss         1 IED      -0.264000
     21 C18        -35.2530    -4.6680   -15.0410 ca         1 IED      -0.055500
     22 C17        -36.2350    -4.2210   -15.9090 ca         1 IED      -0.132000
     23 N14        -38.1240    -2.7820   -16.3770 n          1 IED      -0.451600
     24 O27        -39.2350    -4.7630   -16.7330 o          1 IED      -0.560500
     25 C29        -41.4310    -2.7600   -17.3270 c3         1 IED      -0.095100
     26 N11        -39.3790    -1.3830   -17.5400 n          1 IED      -0.489800
     27 C4         -41.6990     1.3390   -15.1420 ca         1 IED       0.424200
     28 N5         -42.2270     2.4620   -15.6020 nb         1 IED      -0.676000
     29 C6         -41.9630     2.7120   -16.8770 ca         1 IED       0.433800
     30 N7         -42.3880     3.7950   -17.5810 na         1 IED      -0.273100
     31 H1         -40.5470    -0.4370   -15.4240 ha         1 IED       0.140000
     32 H2         -42.1510     4.4800   -19.5800 h4         1 IED       0.167000
     33 H3         -40.6970     2.2510   -19.9230 ha         1 IED       0.155000
     34 H4         -38.9780     0.4110   -18.5040 h1         1 IED       0.071700
     35 H5         -40.4250    -0.4070   -19.0220 h1         1 IED       0.071700
     36 H6         -35.9260    -2.6650   -12.3850 ha         1 IED       0.154000
     37 H7         -37.6980    -1.8990   -13.9120 ha         1 IED       0.151000
     38 H8         -40.1810    -4.1400   -19.3690 hc         1 IED       0.056033
     39 H9         -40.4330    -2.4780   -19.8870 hc         1 IED       0.056033
     40 H10        -38.7920    -3.0590   -19.5690 hc         1 IED       0.056033
     41 H11        -34.5800    -5.4560   -15.3510 ha         1 IED       0.154000
     42 H12        -36.3120    -4.6460   -16.9010 ha         1 IED       0.151000
     43 H13        -41.5380    -2.5030   -16.2740 hc         1 IED       0.056033
     44 H14        -42.0400    -2.0720   -17.9150 hc         1 IED       0.056033
     45 H15        -41.8190    -3.7650   -17.4810 hc         1 IED       0.056033
     46 H16        -41.8950     1.1060   -14.1020 h4         1 IED       0.020100
     47 H17        -42.9570     4.5400   -17.2150 hn         1 IED       0.312700
@<TRIPOS>BOND
     1     1     2 ar  
     2     1     5 1   
     3     1    29 ar  
     4     2     3 ar  
     5     2     6 1   
     6     3    27 ar  
     7     3    31 1   
     8     4     5 2   
     9     4    30 1   
    10     4    32 1   
    11     5    33 1   
    12     6    26 1   
    13     6    34 1   
    14     6    35 1   
    15     7     8 1   
    16     7    15 1   
    17     7    25 1   
    18     7    26 1   
    19     8    23 1   
    20     8    24 2   
    21     9    14 2   
    22     9    23 1   
    23     9    26 1   
    24    10    13 ar  
    25    10    22 ar  
    26    10    23 1   
    27    11    12 ar  
    28    11    20 1   
    29    11    21 ar  
    30    12    13 ar  
    31    12    36 1   
    32    13    37 1   
    33    15    38 1   
    34    15    39 1   
    35    15    40 1   
    36    16    17 1   
    37    17    18 1   
    38    17    19 1   
    39    17    20 1   
    40    21    22 ar  
    41    21    41 1   
    42    22    42 1   
    43    25    43 1   
    44    25    44 1   
    45    25    45 1   
    46    27    28 ar  
    47    27    46 1   
    48    28    29 ar  
    49    29    30 1   
    50    30    47 1   
@<TRIPOS>SUBSTRUCTURE
     1 IED         1 TEMP              0 ****  ****    0 ROOT
