@<TRIPOS>MOLECULE
IED
   47    50     1     0     0
SMALL
No Charge or Current Charge


@<TRIPOS>ATOM
      1 C1         -41.4880     1.6310   -17.7450 ca         1 IED      -0.137800
      2 C2         -40.2130     1.2210   -17.3280 ca         1 IED      -0.018300
      3 C3         -39.8490     1.6170   -16.0260 ca         1 IED      -0.180000
      4 C8         -43.4510     2.0170   -18.9220 cc         1 IED      -0.148100
      5 C9         -42.2050     1.4210   -18.9820 cd         1 IED      -0.242200
      6 C10        -39.2780     0.3970   -18.2050 c3         1 IED       0.168300
      7 C12        -39.8640    -2.1600   -17.8320 c5         1 IED       0.045400
      8 C13        -39.0730    -3.2600   -17.0480 c          1 IED       0.567000
      9 C15        -37.8800    -1.2600   -16.9340 c          1 IED       0.618000
     10 C16        -36.9100    -3.2550   -15.7930 ca         1 IED       0.008000
     11 C19        -34.9040    -4.5390   -14.2500 ca         1 IED      -0.149000
     12 C20        -35.4060    -3.2780   -13.8630 ca         1 IED      -0.037500
     13 C21        -36.3990    -2.6450   -14.6300 ca         1 IED      -0.114000
     14 O28        -36.9860    -0.4710   -16.6640 o          1 IED      -0.522000
     15 C30        -40.0060    -2.5700   -19.3200 c3         1 IED      -0.095100
     16 F24        -34.0130    -4.0550   -11.0710 f          1 IED      -0.097333
     17 C23        -33.0370    -4.3290   -11.9660 c3         1 IED       0.421000
     18 F25        -32.0300    -4.9130   -11.2800 f          1 IED      -0.097333
     19 F26        -32.5640    -3.1510   -12.4320 f          1 IED      -0.097333
     20 S22        -33.6330    -5.4320   -13.3330 ss         1 IED      -0.185000
     21 C18        -35.4150    -5.1490   -15.4100 ca         1 IED      -0.037500
     22 C17        -36.4080    -4.5140   -16.1750 ca         1 IED      -0.114000
     23 N14        -37.9290    -2.6040   -16.5770 n          1 IED      -0.225000
     24 O27        -39.3720    -4.4320   -16.8470 o          1 IED      -0.485000
     25 C29        -41.2690    -1.9720   -17.2070 c3         1 IED      -0.095100
     26 N11        -39.0170    -0.9590   -17.6730 n          1 IED      -0.422800
     27 C4         -40.7540     2.3710   -15.2470 ca         1 IED       0.358900
     28 N5         -41.9830     2.7470   -15.6850 nb         1 IED      -0.676000
     29 C6         -42.3210     2.3650   -16.9300 ca         1 IED       0.368500
     30 N7         -43.4890     2.5950   -17.6330 na         1 IED      -0.323400
     31 H1         -38.8810     1.3490   -15.6130 ha         1 IED       0.122000
     32 H2         -44.2660     2.0760   -19.6420 h4         1 IED       0.217000
     33 H3         -41.8340     0.8730   -19.8450 ha         1 IED       0.205000
     34 H4         -38.3280     0.9380   -18.3130 h1         1 IED       0.071700
     35 H5         -39.6990     0.3050   -19.2130 h1         1 IED       0.071700
     36 H6         -35.0480    -2.7720   -12.9720 ha         1 IED       0.136000
     37 H7         -36.7790    -1.6790   -14.3070 ha         1 IED       0.133000
     38 H8         -40.5520    -3.5160   -19.4210 hc         1 IED       0.056033
     39 H9         -40.5490    -1.8120   -19.8960 hc         1 IED       0.056033
     40 H10        -39.0230    -2.7030   -19.7880 hc         1 IED       0.056033
     41 H11        -35.0380    -6.1210   -15.7230 ha         1 IED       0.136000
     42 H12        -36.7770    -5.0040   -17.0730 ha         1 IED       0.133000
     43 H13        -41.1970    -1.6450   -16.1620 hc         1 IED       0.056033
     44 H14        -41.8540    -1.2210   -17.7500 hc         1 IED       0.056033
     45 H15        -41.8410    -2.9080   -17.2240 hc         1 IED       0.056033
     46 H16        -40.4850     2.6830   -14.2380 h4         1 IED       0.020100
     47 H17        -44.2660     3.1180   -17.2490 hn         1 IED       0.363000
@<TRIPOS>BOND
     1     1     2 ar  
     2     1     5 1   
     3     1    29 ar  
     4     2     3 ar  
     5     2     6 1   
     6     3    27 ar  
     7     3    31 1   
     8     4     5 2   
     9     4    30 1   
    10     4    32 1   
    11     5    33 1   
    12     6    26 1   
    13     6    34 1   
    14     6    35 1   
    15     7     8 1   
    16     7    15 1   
    17     7    25 1   
    18     7    26 1   
    19     8    23 1   
    20     8    24 2   
    21     9    14 2   
    22     9    23 1   
    23     9    26 1   
    24    10    13 ar  
    25    10    22 ar  
    26    10    23 1   
    27    11    12 ar  
    28    11    20 1   
    29    11    21 ar  
    30    12    13 ar  
    31    12    36 1   
    32    13    37 1   
    33    15    38 1   
    34    15    39 1   
    35    15    40 1   
    36    16    17 1   
    37    17    18 1   
    38    17    19 1   
    39    17    20 1   
    40    21    22 ar  
    41    21    41 1   
    42    22    42 1   
    43    25    43 1   
    44    25    44 1   
    45    25    45 1   
    46    27    28 ar  
    47    27    46 1   
    48    28    29 ar  
    49    29    30 1   
    50    30    47 1   
@<TRIPOS>SUBSTRUCTURE
     1 IED         1 TEMP              0 ****  ****    0 ROOT
