@<TRIPOS>MOLECULE
IEE
   30    31     1     0     0
SMALL
bcc


@<TRIPOS>ATOM
      1 C16         -1.9520    -0.7730     0.0530 ca         1 IEE      -0.497600
      2 C2          -3.2970    -0.5700     0.2410 ca         1 IEE       0.612300
      3 CL1         -4.3300    -1.9610     0.3630 cl         1 IEE      -0.179000
      4 N3          -3.8960     0.5930     0.3380 nb         1 IEE      -0.806000
      5 C4          -3.0800     1.6540     0.2320 ca         1 IEE       0.956900
      6 N17         -3.6530     2.8650     0.3490 nv         1 IEE      -0.950500
      7 N5          -1.7660     1.6130     0.0510 nb         1 IEE      -0.865000
      8 C6          -1.1910     0.4110    -0.0330 ca         1 IEE       0.759200
      9 N7           0.1410     0.3930    -0.1940 nu         1 IEE      -0.872900
     10 C8           0.9270    -0.8040    -0.4070 c3         1 IEE       0.282100
     11 C9           2.3910    -0.4970    -0.2530 ca         1 IEE      -0.125300
     12 C10          2.9130    -0.1650     0.9960 ca         1 IEE      -0.105500
     13 C11          4.2570     0.1300     1.1450 ca         1 IEE      -0.132000
     14 C12          5.1260     0.1030     0.0520 ca         1 IEE      -0.061300
     15 C15          6.5880     0.3950     0.2270 c3         1 IEE      -0.049800
     16 C13          4.5990    -0.2240    -1.1920 ca         1 IEE      -0.132000
     17 C14          3.2490    -0.5190    -1.3440 ca         1 IEE      -0.105500
     18 H16         -1.5280    -1.7610    -0.0350 ha         1 IEE       0.162000
     19 H171        -4.6550     2.9370     0.3050 hn         1 IEE       0.442300
     20 H172        -3.1210     3.6820     0.1040 hn         1 IEE       0.442300
     21 H7           0.5800     1.2840    -0.3670 hn         1 IEE       0.451800
     22 H81C         0.6370    -1.5590     0.3280 h1         1 IEE       0.051200
     23 H82C         0.7360    -1.2310    -1.3970 h1         1 IEE       0.051200
     24 H10          2.2590    -0.1390     1.8610 ha         1 IEE       0.135500
     25 H14          2.8640    -0.7680    -2.3260 ha         1 IEE       0.135500
     26 H11          4.6410     0.3850     2.1260 ha         1 IEE       0.132500
     27 H151         7.1160    -0.4790     0.6150 hc         1 IEE       0.045033
     28 H152         7.0570     0.6660    -0.7180 hc         1 IEE       0.045033
     29 H153         6.7520     1.2090     0.9330 hc         1 IEE       0.045033
     30 H13          5.2480    -0.2460    -2.0590 ha         1 IEE       0.132500
@<TRIPOS>BOND
     1     1     2 ar  
     2     1     8 ar  
     3     1    18 1   
     4     2     3 1   
     5     2     4 ar  
     6     4     5 ar  
     7     5     6 1   
     8     5     7 ar  
     9     6    19 1   
    10     6    20 1   
    11     7     8 ar  
    12     8     9 1   
    13     9    10 1   
    14     9    21 1   
    15    10    11 1   
    16    10    22 1   
    17    10    23 1   
    18    11    12 ar  
    19    11    17 ar  
    20    12    13 ar  
    21    12    24 1   
    22    13    14 ar  
    23    13    26 1   
    24    14    15 1   
    25    14    16 ar  
    26    15    27 1   
    27    15    28 1   
    28    15    29 1   
    29    16    17 ar  
    30    16    30 1   
    31    17    25 1   
@<TRIPOS>SUBSTRUCTURE
     1 IEE         1 TEMP              0 ****  ****    0 ROOT
