@<TRIPOS>MOLECULE
IEE
   30    31     1     0     0
SMALL
No Charge or Current Charge


@<TRIPOS>ATOM
      1 C16         -2.0790    -0.7790     0.0020 ca         1 IEE      -0.349000
      2 C2          -3.4610    -0.5550     0.0130 ca         1 IEE       0.284000
      3 Cl1         -4.5900    -1.9000    -0.0200 cl         1 IEE      -0.179000
      4 N3          -3.9790     0.6850     0.0480 nb         1 IEE      -0.280000
      5 C4          -3.0860     1.6820     0.0720 ca         1 IEE       0.430900
      6 N17         -3.5900     2.9350     0.1050 nv         1 IEE      -1.060900
      7 N5          -1.7520     1.5920     0.0640 nb         1 IEE      -0.339000
      8 C6          -1.2560     0.3500     0.0290 ca         1 IEE       0.430900
      9 N7           0.1200     0.2630     0.0200 nu         1 IEE      -0.928100
     10 C8           0.9430    -0.9490    -0.0130 c3         1 IEE       0.282100
     11 C9           2.4160    -0.5670    -0.0090 ca         1 IEE      -0.125300
     12 C10          3.1090    -0.4180     1.2080 ca         1 IEE      -0.087500
     13 C11          4.4700    -0.0650     1.2100 ca         1 IEE      -0.114000
     14 C12          5.1530     0.1450    -0.0020 ca         1 IEE      -0.061300
     15 C15          6.6260     0.5230     0.0010 c3         1 IEE      -0.049800
     16 C13          4.4610    -0.0050    -1.2190 ca         1 IEE      -0.114000
     17 C14          3.1000    -0.3570    -1.2230 ca         1 IEE      -0.087500
     18 H16         -1.6780    -1.7860    -0.0270 ha         1 IEE       0.144000
     19 H171        -4.5720     3.0630    -0.1270 hn         1 IEE       0.497500
     20 H172        -2.9670     3.7100    -0.1090 hn         1 IEE       0.497500
     21 H7           0.6130     1.1550     0.0440 hn         1 IEE       0.507000
     22 H81C         0.7250    -1.5800     0.8600 h1         1 IEE       0.051200
     23 H82C         0.7180    -1.5360    -0.9150 h1         1 IEE       0.051200
     24 H10          2.5930    -0.5740     2.1530 ha         1 IEE       0.117500
     25 H14          2.5760    -0.4670    -2.1700 ha         1 IEE       0.117500
     26 H11          4.9940     0.0450     2.1570 ha         1 IEE       0.114500
     27 H151         7.2590    -0.3720    -0.0250 hc         1 IEE       0.045033
     28 H152         6.8830     1.1400    -0.8680 hc         1 IEE       0.045033
     29 H153         6.8900     1.0940     0.8990 hc         1 IEE       0.045033
     30 H13          4.9770     0.1520    -2.1630 ha         1 IEE       0.114500
@<TRIPOS>BOND
     1     1     2 ar  
     2     1     8 ar  
     3     1    18 1   
     4     2     3 1   
     5     2     4 ar  
     6     4     5 ar  
     7     5     6 1   
     8     5     7 ar  
     9     6    19 1   
    10     6    20 1   
    11     7     8 ar  
    12     8     9 1   
    13     9    10 1   
    14     9    21 1   
    15    10    11 1   
    16    10    22 1   
    17    10    23 1   
    18    11    12 ar  
    19    11    17 ar  
    20    12    13 ar  
    21    12    24 1   
    22    13    14 ar  
    23    13    26 1   
    24    14    15 1   
    25    14    16 ar  
    26    15    27 1   
    27    15    28 1   
    28    15    29 1   
    29    16    17 ar  
    30    16    30 1   
    31    17    25 1   
@<TRIPOS>SUBSTRUCTURE
     1 IEE         1 TEMP              0 ****  ****    0 ROOT
