@<TRIPOS>MOLECULE
IEH
   48    51     1     0     0
SMALL
No Charge or Current Charge


@<TRIPOS>ATOM
      1 C10         91.2430    -5.7400    16.2080 ca         1 IEH       0.374900
      2 C11         92.4920    -5.7480    15.5190 ca         1 IEH       0.293300
      3 C13         92.0120    -7.8810    14.7410 ca         1 IEH       0.182500
      4 C15         92.4200    -9.1140    13.9510 c          1 IEH       0.531600
      5 C18         94.9430    -4.7280    15.6200 cx         1 IEH      -0.104900
      6 C19         94.2810    -4.1340    14.4000 cx         1 IEH      -0.104900
      7 C20         94.3050    -9.9220    12.5090 cc         1 IEH       0.016600
      8 C21         95.5170    -9.7010    11.9140 cd         1 IEH      -0.280600
      9 C24         93.9090   -11.2250    12.1530 cc         1 IEH       0.231900
     10 C25         96.2950    -8.4340    12.0350 c          1 IEH       0.642700
     11 C1          86.0260    -9.6030    16.8440 ca         1 IEH       0.083900
     12 N2          86.3640    -8.3070    16.6880 nb         1 IEH      -0.154000
     13 C3          87.6090    -8.0560    16.2290 ca         1 IEH       0.068400
     14 C4          88.5230    -9.0970    15.9280 ca         1 IEH       0.208000
     15 C5          88.0460   -10.4140    16.1180 ca         1 IEH       0.068400
     16 N6          86.8040   -10.6730    16.5790 nb         1 IEH      -0.154000
     17 C8          90.7500    -7.8440    15.4300 ca         1 IEH       0.618900
     18 N9          90.3690    -6.7850    16.1710 nb         1 IEH      -0.722000
     19 N12         92.8870    -6.8200    14.7820 nb         1 IEH      -0.621000
     20 C14         93.4360    -4.5670    15.5820 cx         1 IEH      -0.196000
     21 N16         93.6360    -8.9980    13.3040 ns         1 IEH      -0.344100
     22 O17         91.7420   -10.1370    13.8920 o          1 IEH      -0.630100
     23 N22         95.7820   -10.9070    11.2240 na         1 IEH       0.149800
     24 N23         94.7720   -11.8480    11.3810 nd         1 IEH      -0.495800
     25 O26         95.9090    -7.4720    12.6840 o          1 IEH      -0.610100
     26 N27         97.4920    -8.4080    11.3630 ns         1 IEH      -0.498900
     27 C29         98.4050    -7.2610    11.3530 c3         1 IEH       0.091300
     28 H1          90.9410    -4.8780    16.8000 h4         1 IEH       0.034100
     29 H2          95.5090    -4.0600    16.2650 hc         1 IEH       0.079450
     30 H3          95.3600    -5.7290    15.5290 hc         1 IEH       0.079450
     31 H4          94.2580    -4.7390    13.4960 hc         1 IEH       0.079450
     32 H5          94.4030    -3.0670    14.2260 hc         1 IEH       0.079450
     33 H6          93.0050   -11.7460    12.4370 h4         1 IEH       0.068100
     34 H7          96.8470   -12.2690    10.0060 h1         1 IEH       0.061033
     35 H8          97.0300   -10.5540     9.5560 h1         1 IEH       0.061033
     36 H9          97.8630   -11.2050    11.0120 h1         1 IEH       0.061033
     37 H10         85.0230    -9.8070    17.2160 h5         1 IEH       0.052100
     38 H11         87.8540    -7.0070    16.0840 h4         1 IEH       0.041100
     39 H12         88.6720   -11.2790    15.9020 h4         1 IEH       0.041100
     40 H13         90.2370    -9.7130    14.9610 hn         1 IEH       0.546000
     41 H14         93.0310    -3.7630    16.1920 hc         1 IEH       0.083700
     42 H15         94.0850    -8.0950    13.4530 hn         1 IEH       0.381500
     43 H16         97.7530    -9.2340    10.8460 hn         1 IEH       0.317500
     44 H17         99.2870    -7.4980    10.7450 h1         1 IEH       0.044700
     45 H18         97.8950    -6.3870    10.9270 h1         1 IEH       0.044700
     46 H19         98.7230    -7.0340    12.3790 h1         1 IEH       0.044700
     47 N7          89.8290    -8.8920    15.4280 nu         1 IEH      -0.916900
     48 C28         96.9540   -11.2500    10.4000 c3         1 IEH       0.067900
@<TRIPOS>BOND
     1     1     2 ar  
     2     1    18 ar  
     3     1    28 1   
     4     2    19 ar  
     5     2    20 1   
     6     3     4 1   
     7     3    17 ar  
     8     3    19 ar  
     9     4    21 1   
    10     4    22 2   
    11     5     6 1   
    12     5    20 1   
    13     5    29 1   
    14     5    30 1   
    15     6    20 1   
    16     6    31 1   
    17     6    32 1   
    18     7     8 2   
    19     7     9 1   
    20     7    21 1   
    21     8    10 1   
    22     8    23 1   
    23     9    24 2   
    24     9    33 1   
    25    10    25 2   
    26    10    26 1   
    27    11    12 ar  
    28    11    16 ar  
    29    11    37 1   
    30    12    13 ar  
    31    13    14 ar  
    32    13    38 1   
    33    14    15 ar  
    34    14    47 1   
    35    15    16 ar  
    36    15    39 1   
    37    17    18 ar  
    38    17    47 1   
    39    20    41 1   
    40    21    42 1   
    41    23    24 1   
    42    23    48 1   
    43    26    27 1   
    44    26    43 1   
    45    27    44 1   
    46    27    45 1   
    47    27    46 1   
    48    34    48 1   
    49    35    48 1   
    50    36    48 1   
    51    40    47 1   
@<TRIPOS>SUBSTRUCTURE
     1 IEH         1 TEMP              0 ****  ****    0 ROOT
