@<TRIPOS>MOLECULE
IEH
   48    51     1     0     0
SMALL
abcg2


@<TRIPOS>ATOM
      1 C10         91.2350    -5.7290    16.0120 ca         1 IEH       0.374900
      2 C11         92.4150    -5.7310    15.2680 ca         1 IEH       0.293300
      3 C13         91.8870    -7.8450    14.5410 ca         1 IEH       0.182500
      4 C15         92.3070    -9.0090    13.7080 c          1 IEH       0.531600
      5 C18         94.8280    -4.8200    15.1770 cx         1 IEH      -0.104900
      6 C19         94.1030    -4.2330    14.0160 cx         1 IEH      -0.104900
      7 C20         94.1180    -9.7350    12.2590 cc         1 IEH       0.016600
      8 C21         95.4140    -9.5870    11.7810 cd         1 IEH      -0.280600
      9 C24         93.6830   -10.9670    11.7490 cc         1 IEH       0.231900
     10 C25         96.3030    -8.4420    12.0660 c          1 IEH       0.642700
     11 C1          86.4380    -9.7450    17.3330 ca         1 IEH       0.083900
     12 N2          86.8640    -8.5000    17.4300 nb         1 IEH      -0.154000
     13 C3          87.9800    -8.1680    16.7910 ca         1 IEH       0.068400
     14 C4          88.6930    -9.1040    16.0360 ca         1 IEH       0.208000
     15 C5          88.1400   -10.3900    16.0060 ca         1 IEH       0.068400
     16 N6          87.0310   -10.7100    16.6420 nb         1 IEH      -0.154000
     17 C8          90.6960    -7.8290    15.3060 ca         1 IEH       0.618900
     18 N9          90.4030    -6.7510    16.0250 nb         1 IEH      -0.722000
     19 N12         92.6980    -6.8040    14.5500 nb         1 IEH      -0.621000
     20 C14         93.3430    -4.5840    15.2670 cx         1 IEH      -0.196000
     21 N16         93.4690    -8.8180    13.0650 ns         1 IEH      -0.344100
     22 O17         91.6400   -10.0370    13.6310 o          1 IEH      -0.630100
     23 N22         95.6580   -10.6890    11.0240 na         1 IEH       0.149800
     24 N23         94.6290   -11.5110    11.0020 nd         1 IEH      -0.495800
     25 O26         95.8030    -7.3580    12.3580 o          1 IEH      -0.610100
     26 N27         97.6270    -8.6300    12.0220 ns         1 IEH      -0.498900
     27 C29         98.5530    -7.5580    12.3150 c3         1 IEH       0.091300
     28 H1          90.9630    -4.8690    16.6140 h4         1 IEH       0.034100
     29 H2          95.4670    -4.1780    15.7680 hc         1 IEH       0.079450
     30 H3          95.1620    -5.8470    15.1000 hc         1 IEH       0.079450
     31 H4          93.9420    -4.8610    13.1490 hc         1 IEH       0.079450
     32 H5          94.2390    -3.1820    13.7970 hc         1 IEH       0.079450
     33 H6          92.7380   -11.4640    11.8790 h4         1 IEH       0.068100
     34 H7          96.5290   -11.7400     9.4840 h1         1 IEH       0.061033
     35 H8          97.2140   -10.1320     9.7400 h1         1 IEH       0.061033
     36 H9          97.6100   -11.4620    10.8530 h1         1 IEH       0.061033
     37 H10         85.5270   -10.0030    17.8610 h5         1 IEH       0.052100
     38 H11         88.3120    -7.1460    16.8810 h4         1 IEH       0.041100
     39 H12         88.6300   -11.1770    15.4380 h4         1 IEH       0.041100
     40 H13         90.1820    -9.6790    14.7580 hn         1 IEH       0.546000
     41 H14         93.0220    -3.7560    15.8880 hc         1 IEH       0.083700
     42 H15         93.9270    -7.9230    13.1980 hn         1 IEH       0.381500
     43 H16         98.0040    -9.5600    11.9610 hn         1 IEH       0.317500
     44 H17         99.5610    -7.9230    12.1400 h1         1 IEH       0.044700
     45 H18         98.3790    -6.7030    11.6640 h1         1 IEH       0.044700
     46 H19         98.4790    -7.2260    13.3510 h1         1 IEH       0.044700
     47 N7          89.8540    -8.8970    15.3190 nu         1 IEH      -0.916900
     48 C28         96.8280   -11.0180    10.2380 c3         1 IEH       0.067900
@<TRIPOS>BOND
     1     1     2 ar  
     2     1    18 ar  
     3     1    28 1   
     4     2    19 ar  
     5     2    20 1   
     6     3     4 1   
     7     3    17 ar  
     8     3    19 ar  
     9     4    21 1   
    10     4    22 2   
    11     5     6 1   
    12     5    20 1   
    13     5    29 1   
    14     5    30 1   
    15     6    20 1   
    16     6    31 1   
    17     6    32 1   
    18     7     8 2   
    19     7     9 1   
    20     7    21 1   
    21     8    10 1   
    22     8    23 1   
    23     9    24 2   
    24     9    33 1   
    25    10    25 2   
    26    10    26 1   
    27    11    12 ar  
    28    11    16 ar  
    29    11    37 1   
    30    12    13 ar  
    31    13    14 ar  
    32    13    38 1   
    33    14    15 ar  
    34    14    47 1   
    35    15    16 ar  
    36    15    39 1   
    37    17    18 ar  
    38    17    47 1   
    39    20    41 1   
    40    21    42 1   
    41    23    24 1   
    42    23    48 1   
    43    26    27 1   
    44    26    43 1   
    45    27    44 1   
    46    27    45 1   
    47    27    46 1   
    48    34    48 1   
    49    35    48 1   
    50    36    48 1   
    51    40    47 1   
@<TRIPOS>SUBSTRUCTURE
     1 IEH         1 TEMP              0 ****  ****    0 ROOT
