@<TRIPOS>MOLECULE
IEI
  132   141     1     0     0
SMALL
abcg2


@<TRIPOS>ATOM
      1 C4         -24.3530     7.1810     3.0950 ca         1 IEI      -0.170000
      2 C5         -23.5220     6.1560     3.5480 ca         1 IEI       0.027000
      3 C6         -23.6420     4.8890     2.9820 ca         1 IEI      -0.133000
      4 C7         -22.5320     6.4220     4.5930 cc         1 IEI      -0.186000
      5 C10        -25.2250     4.5130    -1.4340 c          1 IEI       0.603100
      6 C13        -23.5800     2.6740    -1.9150 c5         1 IEI      -0.128400
      7 C15        -23.5270     3.1420    -4.2320 c5         1 IEI       0.108000
      8 C20        -25.5900     4.6680    -5.7710 c3         1 IEI       0.048700
      9 C21        -25.3350     6.1940    -5.9220 c3         1 IEI      -0.045000
     10 C24        -26.4840     7.0560    -5.3970 c3         1 IEI      -0.091433
     11 C28        -27.8860     2.3850    -9.5160 cx         1 IEI      -0.117900
     12 C1         -24.5820     4.6620     1.9890 ca         1 IEI      -0.072000
     13 C2         -25.4210     5.6690     1.5330 ca         1 IEI      -0.119300
     14 C3         -25.3010     6.9410     2.1070 ca         1 IEI       0.151100
     15 N9         -26.1060     4.3410    -0.4390 ns         1 IEI      -0.497900
     16 C11        -24.9420     3.2770    -2.2760 c5         1 IEI       0.034700
     17 O12        -24.6300     5.5610    -1.6270 o          1 IEI      -0.603100
     18 C14        -23.0960     2.0820    -3.2330 c5         1 IEI       0.153300
     19 N16        -24.7890     3.6240    -3.6800 n          1 IEI      -0.389800
     20 O17        -23.7730     0.8890    -3.5550 oh         1 IEI      -0.647000
     21 C18        -25.7970     4.2380    -4.3190 c          1 IEI       0.603100
     22 O19        -26.8630     4.4560    -3.7550 o          1 IEI      -0.614100
     23 N22        -26.7300     4.2290    -6.5410 ns         1 IEI      -0.481900
     24 C23        -24.0530     6.5510    -5.1690 c3         1 IEI      -0.091433
     25 C25        -25.1300     6.4900    -7.4100 c3         1 IEI      -0.091433
     26 O27        -25.6830     2.5090    -7.5870 o          1 IEI      -0.605100
     27 C29        -28.3070     1.4680    -8.4070 cx         1 IEI      -0.117900
     28 C30        -27.9490     2.8830    -8.1130 cx         1 IEI       0.033000
     29 F31        -28.9810     3.7350    -7.8040 f          1 IEI      -0.233000
     30 C32        -22.6480     7.1420     5.7530 cd         1 IEI       0.301300
     31 N33        -21.5110     7.1920     6.5130 nd         1 IEI      -0.636000
     32 C34        -20.5410     6.5350     5.9660 cc         1 IEI       0.413300
     33 S35        -20.9280     5.7940     4.4720 ss         1 IEI      -0.028400
     34 C36        -23.8770     7.8280     6.2520 c3         1 IEI      -0.122400
     35 O37        -26.1550     7.8820     1.6510 os         1 IEI      -0.357100
     36 C38        -25.8290     9.2620     1.7620 c3         1 IEI       0.164600
     37 C39        -24.5850     9.6660     0.9750 c3         1 IEI      -0.113400
     38 C40        -24.4670     9.1530    -0.4620 c3         1 IEI       0.165800
     39 N41        -24.9750    10.0440    -1.4930 n3         1 IEI      -0.717600
     40 C42        -24.6540     9.4990    -2.8010 c6         1 IEI       0.162800
     41 C43        -25.0690    10.4320    -3.9260 c6         1 IEI      -0.071900
     42 C44        -26.5650    10.7090    -3.8550 c6         1 IEI      -0.021400
     43 C45        -26.8900    11.2460    -2.4600 c6         1 IEI      -0.071900
     44 C46        -26.3970    10.3020    -1.3740 c6         1 IEI       0.162800
     45 C47        -27.1040    11.6290    -4.9210 ca         1 IEI      -0.051300
     46 C48        -26.3320    12.6360    -5.4890 ca         1 IEI      -0.106000
     47 C49        -26.9210    13.4830    -6.4130 ca         1 IEI      -0.022200
     48 C50        -28.2610    13.3560    -6.7910 ca         1 IEI      -0.047200
     49 C51        -29.0370    12.3550    -6.2280 ca         1 IEI      -0.085000
     50 C52        -28.4410    11.5080    -5.3040 ca         1 IEI      -0.118000
     51 N53        -26.3830    14.5520    -7.1030 na         1 IEI      -0.190600
     52 C54        -27.3430    15.0980    -7.8780 cc         1 IEI       0.641300
     53 N55        -28.4970    14.3800    -7.7220 na         1 IEI      -0.117400
     54 N56        -27.1750    16.1380    -8.6290 nd         1 IEI      -0.770100
     55 C57        -28.2150    16.6220    -9.3550 c          1 IEI       0.733100
     56 C58        -29.5050    15.8710    -9.3060 ca         1 IEI      -0.184600
     57 C59        -29.6160    14.7410    -8.4660 ca         1 IEI       0.063800
     58 C60        -30.6380    16.2190   -10.0600 ca         1 IEI       0.057100
     59 C61        -31.8140    15.4950    -9.9830 ca         1 IEI      -0.126000
     60 C62        -31.8830    14.3910    -9.1490 ca         1 IEI      -0.065000
     61 C63        -30.7960    14.0080    -8.3940 ca         1 IEI      -0.150000
     62 C64        -25.0240    15.0590    -7.0290 c5         1 IEI       0.089300
     63 O65        -28.0780    17.6350   -10.0190 o          1 IEI      -0.526100
     64 BR1        -30.6930    17.6760   -11.2610 br         1 IEI      -0.049100
     65 C67        -23.9340    14.0110    -7.3680 c5         1 IEI      -0.095900
     66 C68        -22.8900    14.1320    -6.2480 c5         1 IEI      -0.081400
     67 C69        -23.1300    15.5150    -5.6430 c5         1 IEI      -0.081400
     68 C70        -24.6490    15.6450    -5.6620 c5         1 IEI      -0.095900
     69 H1         -24.2370     8.1710     3.5140 ha         1 IEI       0.124000
     70 H2         -23.0160     4.0740     3.3210 ha         1 IEI       0.119000
     71 H3         -26.6360     6.3210    -0.1130 h1         1 IEI       0.068200
     72 H4         -27.4100     5.1480     0.9240 h1         1 IEI       0.068200
     73 H5         -23.6490     1.9450    -1.1070 hc         1 IEI       0.067200
     74 H6         -22.8890     3.4590    -1.6000 hc         1 IEI       0.067200
     75 H7         -23.6520     2.7250    -5.2300 h1         1 IEI       0.070200
     76 H8         -22.7820     3.9400    -4.2840 h1         1 IEI       0.070200
     77 H9         -24.7200     4.1720    -6.1980 h1         1 IEI       0.087700
     78 H10        -26.6130     6.9670    -4.3200 hc         1 IEI       0.041033
     79 H11        -26.2740     8.1040    -5.6170 hc         1 IEI       0.041033
     80 H12        -27.4380     6.8220    -5.8750 hc         1 IEI       0.041033
     81 H14        -28.6550     2.7410   -10.1900 hc         1 IEI       0.092950
     82 H15        -24.6570     3.6740     1.5520 ha         1 IEI       0.111000
     83 H16        -26.5810     3.4590    -0.3470 hn         1 IEI       0.319500
     84 H17        -25.7390     2.5370    -2.1490 h1         1 IEI       0.072700
     85 H18        -22.0090     1.9480    -3.2450 h1         1 IEI       0.054700
     86 H19        -23.6020     0.2460    -2.8600 ho         1 IEI       0.444000
     87 H20        -27.6100     4.6990    -6.4010 hn         1 IEI       0.343500
     88 H21        -24.1330     6.3580    -4.0990 hc         1 IEI       0.041033
     89 H22        -23.1970     5.9920    -5.5530 hc         1 IEI       0.041033
     90 H23        -23.8320     7.6130    -5.2920 hc         1 IEI       0.041033
     91 H24        -24.3350     5.8720    -7.8340 hc         1 IEI       0.041033
     92 H25        -26.0360     6.3210    -7.9930 hc         1 IEI       0.041033
     93 H26        -24.8440     7.5360    -7.5450 hc         1 IEI       0.041033
     94 H27        -29.3560     1.2100    -8.3410 hc         1 IEI       0.092950
     95 H28        -27.6240     0.6970    -8.0780 hc         1 IEI       0.092950
     96 H29        -19.5540     6.4420     6.3980 h5         1 IEI       0.053100
     97 H30        -23.9270     7.7660     7.3380 hc         1 IEI       0.051700
     98 H31        -23.8780     8.8870     5.9850 hc         1 IEI       0.051700
     99 H32        -24.7830     7.3860     5.8410 hc         1 IEI       0.051700
    100 H33        -25.7100     9.5530     2.8120 h1         1 IEI       0.052200
    101 H34        -26.7180     9.7740     1.4000 h1         1 IEI       0.052200
    102 H35        -23.7000     9.3290     1.5190 hc         1 IEI       0.056700
    103 H36        -24.5280    10.7580     0.9840 hc         1 IEI       0.056700
    104 H37        -24.9170     8.1510    -0.5470 h1         1 IEI       0.048700
    105 H38        -23.4040     9.0110    -0.6710 h1         1 IEI       0.048700
    106 H40        -25.1340     8.5150    -2.9540 h1         1 IEI       0.035950
    107 H41        -23.5760     9.3280    -2.8530 h1         1 IEI       0.035950
    108 H42        -24.8050     9.9790    -4.8850 hc         1 IEI       0.047950
    109 H43        -24.4980    11.3620    -3.8430 hc         1 IEI       0.047950
    110 H44        -27.0820     9.7460    -3.9640 hc         1 IEI       0.056700
    111 H45        -26.4210    12.2270    -2.3330 hc         1 IEI       0.047950
    112 H46        -27.9670    11.3890    -2.3450 hc         1 IEI       0.047950
    113 H47        -26.5990    10.7640    -0.4070 h1         1 IEI       0.035950
    114 H48        -26.9840     9.3640    -1.4110 h1         1 IEI       0.035950
    115 H49        -25.2950    12.7620    -5.2150 ha         1 IEI       0.135000
    116 H50        -30.0760    12.2000    -6.4610 ha         1 IEI       0.126000
    117 H51        -29.0460    10.7250    -4.8650 ha         1 IEI       0.120000
    118 H53        -32.6770    15.7770   -10.5700 ha         1 IEI       0.135000
    119 H54        -32.7990    13.8190    -9.0920 ha         1 IEI       0.121000
    120 H55        -30.8850    13.1370    -7.7710 ha         1 IEI       0.125000
    121 H56        -24.9860    15.8590    -7.7660 h1         1 IEI       0.107700
    122 H57        -24.3360    13.0000    -7.4470 hc         1 IEI       0.057200
    123 H58        -23.4980    14.2460    -8.3390 hc         1 IEI       0.057200
    124 H59        -23.0610    13.3660    -5.4870 hc         1 IEI       0.048200
    125 H60        -21.8720    13.9970    -6.6120 hc         1 IEI       0.048200
    126 H61        -22.7100    15.6230    -4.6430 hc         1 IEI       0.048200
    127 H62        -22.6790    16.2880    -6.2710 hc         1 IEI       0.048200
    128 H63        -25.0040    16.6710    -5.5530 hc         1 IEI       0.057200
    129 H64        -25.0820    15.0630    -4.8460 hc         1 IEI       0.057200
    130 C8         -26.4570     5.4120     0.4620 c3         1 IEI       0.160300
    131 C26        -26.6780     3.1880    -7.3850 c          1 IEI       0.622100
    132 H13        -26.9100     2.2530    -9.9620 hc         1 IEI       0.092950
@<TRIPOS>BOND
     1     1     2 ar  
     2     1    14 ar  
     3     1    69 1   
     4     2     3 ar  
     5     2     4 1   
     6     3    12 ar  
     7     3    70 1   
     8     4    30 2   
     9     4    33 1   
    10     5    15 1   
    11     5    16 1   
    12     5    17 2   
    13     6    16 1   
    14     6    18 1   
    15     6    73 1   
    16     6    74 1   
    17     7    18 1   
    18     7    19 1   
    19     7    75 1   
    20     7    76 1   
    21     8     9 1   
    22     8    21 1   
    23     8    23 1   
    24     8    77 1   
    25     9    10 1   
    26     9    24 1   
    27     9    25 1   
    28    10    78 1   
    29    10    79 1   
    30    10    80 1   
    31    11    27 1   
    32    11    28 1   
    33    11    81 1   
    34    11   132 1   
    35    12    13 ar  
    36    12    82 1   
    37    13    14 ar  
    38    13   130 1   
    39    14    35 1   
    40    15    83 1   
    41    15   130 1   
    42    16    19 1   
    43    16    84 1   
    44    18    20 1   
    45    18    85 1   
    46    19    21 1   
    47    20    86 1   
    48    21    22 2   
    49    23    87 1   
    50    23   131 1   
    51    24    88 1   
    52    24    89 1   
    53    24    90 1   
    54    25    91 1   
    55    25    92 1   
    56    25    93 1   
    57    26   131 2   
    58    27    28 1   
    59    27    94 1   
    60    27    95 1   
    61    28    29 1   
    62    28   131 1   
    63    30    31 1   
    64    30    34 1   
    65    31    32 2   
    66    32    33 1   
    67    32    96 1   
    68    34    97 1   
    69    34    98 1   
    70    34    99 1   
    71    35    36 1   
    72    36    37 1   
    73    36   100 1   
    74    36   101 1   
    75    37    38 1   
    76    37   102 1   
    77    37   103 1   
    78    38    39 1   
    79    38   104 1   
    80    38   105 1   
    81    39    40 1   
    82    39    44 1   
    83    40    41 1   
    84    40   106 1   
    85    40   107 1   
    86    41    42 1   
    87    41   108 1   
    88    41   109 1   
    89    42    43 1   
    90    42    45 1   
    91    42   110 1   
    92    43    44 1   
    93    43   111 1   
    94    43   112 1   
    95    44   113 1   
    96    44   114 1   
    97    45    46 ar  
    98    45    50 ar  
    99    46    47 ar  
   100    46   115 1   
   101    47    48 ar  
   102    47    51 1   
   103    48    49 ar  
   104    48    53 1   
   105    49    50 ar  
   106    49   116 1   
   107    50   117 1   
   108    51    52 1   
   109    51    62 1   
   110    52    53 1   
   111    52    54 2   
   112    53    57 1   
   113    54    55 1   
   114    55    56 1   
   115    55    63 2   
   116    56    57 ar  
   117    56    58 ar  
   118    57    61 ar  
   119    58    59 ar  
   120    58    64 1   
   121    59    60 ar  
   122    59   118 1   
   123    60    61 ar  
   124    60   119 1   
   125    61   120 1   
   126    62    65 1   
   127    62    68 1   
   128    62   121 1   
   129    65    66 1   
   130    65   122 1   
   131    65   123 1   
   132    66    67 1   
   133    66   124 1   
   134    66   125 1   
   135    67    68 1   
   136    67   126 1   
   137    67   127 1   
   138    68   128 1   
   139    68   129 1   
   140    71   130 1   
   141    72   130 1   
@<TRIPOS>SUBSTRUCTURE
     1 IEI         1 TEMP              0 ****  ****    0 ROOT
