@<TRIPOS>MOLECULE
IEI
  132   141     1     0     0
SMALL
No Charge or Current Charge


@<TRIPOS>ATOM
      1 C4         -23.8680     7.1720     3.0940 ca         1 IEI      -0.170000
      2 C5         -23.1350     6.1310     3.6910 ca         1 IEI       0.027000
      3 C6         -23.4440     4.8010     3.3690 ca         1 IEI      -0.133000
      4 C7         -22.0450     6.4180     4.6200 cc         1 IEI      -0.186000
      5 C10        -25.6210     4.6930    -1.4330 c          1 IEI       0.603100
      6 C13        -23.6250     3.2080    -1.9350 c5         1 IEI      -0.128400
      7 C15        -23.8580     3.0330    -4.3260 c5         1 IEI       0.108000
      8 C20        -26.0520     4.4010    -5.9860 c3         1 IEI       0.048700
      9 C21        -25.6870     5.9240    -6.1940 c3         1 IEI      -0.045000
     10 C24        -26.7740     6.8460    -5.5740 c3         1 IEI      -0.091433
     11 C28        -29.0920     1.8090    -9.0790 cx         1 IEI      -0.117900
     12 C1         -24.4880     4.5090     2.4790 ca         1 IEI      -0.072000
     13 C2         -25.2300     5.5460     1.8790 ca         1 IEI      -0.119300
     14 C3         -24.9120     6.8900     2.1840 ca         1 IEI       0.151100
     15 N9         -25.9240     4.2940    -0.1480 ns         1 IEI      -0.497900
     16 C11        -25.1300     3.4570    -2.2520 c5         1 IEI       0.034700
     17 O12        -25.7410     5.8460    -1.8250 o          1 IEI      -0.603100
     18 C14        -23.1810     2.3140    -3.1180 c5         1 IEI       0.153300
     19 N16        -25.0670     3.6560    -3.7260 n          1 IEI      -0.389800
     20 O17        -23.6460     0.9700    -2.9600 oh         1 IEI      -0.647000
     21 C18        -26.2150     3.9780    -4.4840 c          1 IEI       0.603100
     22 O19        -27.3230     3.9500    -3.9540 o          1 IEI      -0.614100
     23 N22        -27.2940     4.0330    -6.7110 ns         1 IEI      -0.481900
     24 C23        -24.3190     6.2680    -5.5450 c3         1 IEI      -0.091433
     25 C25        -25.5760     6.2500    -7.7110 c3         1 IEI      -0.091433
     26 O27        -26.3470     3.0470    -8.5400 o          1 IEI      -0.605100
     27 C29        -29.6230     2.1320    -7.7030 cx         1 IEI      -0.117900
     28 C30        -28.7680     3.1430    -8.4390 cx         1 IEI       0.033000
     29 F31        -29.3860     4.2580    -8.9340 f          1 IEI      -0.233000
     30 C32        -22.2170     7.1970     5.7480 cd         1 IEI       0.301300
     31 N33        -21.0690     7.3260     6.5170 nd         1 IEI      -0.636000
     32 C34        -20.0760     6.6300     5.9680 cc         1 IEI       0.413300
     33 S35        -20.4450     5.7560     4.5030 ss         1 IEI      -0.028400
     34 C36        -23.4810     7.8720     6.2110 c3         1 IEI      -0.122400
     35 O37        -25.6590     7.8960     1.5960 os         1 IEI      -0.357100
     36 C38        -25.2790     9.2890     1.5940 c3         1 IEI       0.164600
     37 C39        -24.0360     9.5010     0.6870 c3         1 IEI      -0.113400
     38 C40        -24.1240     8.8980    -0.7390 c3         1 IEI       0.165800
     39 N41        -24.6250     9.8000    -1.8100 n3         1 IEI      -0.717600
     40 C42        -24.4730     9.1600    -3.1480 c6         1 IEI       0.162800
     41 C43        -24.8940    10.1050    -4.2970 c6         1 IEI      -0.071900
     42 C44        -26.3590    10.5650    -4.1130 c6         1 IEI      -0.021400
     43 C45        -26.5030    11.2240    -2.7190 c6         1 IEI      -0.071900
     44 C46        -26.0260    10.2690    -1.5970 c6         1 IEI       0.162800
     45 C47        -26.8240    11.4820    -5.2520 ca         1 IEI      -0.051300
     46 C48        -26.1930    12.7270    -5.4720 ca         1 IEI      -0.106000
     47 C49        -26.6440    13.5370    -6.5250 ca         1 IEI      -0.022200
     48 C50        -27.6770    13.1310    -7.3530 ca         1 IEI      -0.047200
     49 C51        -28.3530    11.9190    -7.1280 ca         1 IEI      -0.085000
     50 C52        -27.9070    11.0920    -6.0770 ca         1 IEI      -0.118000
     51 N53        -26.2420    14.8300    -6.8660 na         1 IEI      -0.190600
     52 C54        -27.0400    15.1980    -7.9530 cc         1 IEI       0.641300
     53 N55        -27.8850    14.1480    -8.2750 na         1 IEI      -0.117400
     54 N56        -27.4020    16.4540    -8.1380 nd         1 IEI      -0.770100
     55 C57        -28.5270    16.7670    -8.9100 c          1 IEI       0.733100
     56 C58        -29.2880    15.6270    -9.5610 ca         1 IEI      -0.184600
     57 C59        -28.9000    14.3090    -9.2210 ca         1 IEI       0.063800
     58 C60        -30.3220    15.8130   -10.5220 ca         1 IEI       0.057100
     59 C61        -30.9120    14.7010   -11.1440 ca         1 IEI      -0.126000
     60 C62        -30.4710    13.4040   -10.8540 ca         1 IEI      -0.065000
     61 C63        -29.4570    13.2110    -9.9080 ca         1 IEI      -0.150000
     62 C64        -25.3050    15.7130    -6.1500 c5         1 IEI       0.089300
     63 O65        -28.8300    17.9430    -9.0080 o          1 IEI      -0.526100
     64 Br1        -30.9750    17.5350   -11.0830 br         1 IEI      -0.049100
     65 C67        -23.8430    15.1670    -6.0010 c5         1 IEI      -0.095900
     66 C68        -23.4390    15.4640    -4.5240 c5         1 IEI      -0.081400
     67 C69        -24.3890    16.6190    -4.1310 c5         1 IEI      -0.081400
     68 C70        -25.7200    16.0720    -4.6940 c5         1 IEI      -0.095900
     69 H1         -23.6120     8.1950     3.3460 ha         1 IEI       0.124000
     70 H2         -22.8820     3.9880     3.8220 ha         1 IEI       0.119000
     71 H3         -26.8080     6.0940     0.4750 h1         1 IEI       0.068200
     72 H4         -27.1640     4.6920     1.4860 h1         1 IEI       0.068200
     73 H5         -23.4690     2.7350    -0.9580 hc         1 IEI       0.067200
     74 H6         -23.0590     4.1480    -1.9300 hc         1 IEI       0.067200
     75 H7         -24.1070     2.3220    -5.1250 h1         1 IEI       0.070200
     76 H8         -23.1880     3.7950    -4.7400 h1         1 IEI       0.070200
     77 H9         -25.2350     3.8010    -6.4010 h1         1 IEI       0.087700
     78 H10        -26.8300     6.7230    -4.4860 hc         1 IEI       0.041033
     79 H11        -26.5510     7.8990    -5.7790 hc         1 IEI       0.041033
     80 H12        -27.7650     6.6330    -5.9920 hc         1 IEI       0.041033
     81 H14        -29.7970     1.8040    -9.9070 hc         1 IEI       0.092950
     82 H15        -24.7220     3.4700     2.2580 ha         1 IEI       0.111000
     83 H16        -25.8000     3.3130     0.0700 hn         1 IEI       0.319500
     84 H17        -25.7520     2.5860    -2.0060 h1         1 IEI       0.072700
     85 H18        -22.0870     2.3160    -3.2300 h1         1 IEI       0.054700
     86 H19        -23.1370     0.5760    -2.2180 ho         1 IEI       0.444000
     87 H20        -28.1830     4.2480    -6.2730 hn         1 IEI       0.343500
     88 H21        -24.3370     6.1290    -4.4580 hc         1 IEI       0.041033
     89 H22        -23.5190     5.6470    -5.9650 hc         1 IEI       0.041033
     90 H23        -24.0500     7.3140    -5.7330 hc         1 IEI       0.041033
     91 H24        -24.8520     5.5890    -8.2020 hc         1 IEI       0.041033
     92 H25        -26.5410     6.1390    -8.2200 hc         1 IEI       0.041033
     93 H26        -25.2450     7.2840    -7.8670 hc         1 IEI       0.041033
     94 H27        -30.6850     2.3430    -7.6050 hc         1 IEI       0.092950
     95 H28        -29.1840     1.6090    -6.8560 hc         1 IEI       0.092950
     96 H29        -19.0740     6.5680     6.3760 h5         1 IEI       0.053100
     97 H30        -23.4670     8.0440     7.2930 hc         1 IEI       0.051700
     98 H31        -23.6060     8.8450     5.7210 hc         1 IEI       0.051700
     99 H32        -24.3630     7.2620     5.9870 hc         1 IEI       0.051700
    100 H33        -25.0730     9.6480     2.6100 h1         1 IEI       0.052200
    101 H34        -26.1130     9.8880     1.2150 h1         1 IEI       0.052200
    102 H35        -23.1670     9.0560     1.1830 hc         1 IEI       0.056700
    103 H36        -23.8180    10.5730     0.6160 hc         1 IEI       0.056700
    104 H37        -24.7160     7.9740    -0.7100 h1         1 IEI       0.048700
    105 H38        -23.1030     8.5910    -1.0060 h1         1 IEI       0.048700
    106 H40        -25.0810     8.2440    -3.2010 h1         1 IEI       0.035950
    107 H41        -23.4270     8.8590    -3.3100 h1         1 IEI       0.035950
    108 H42        -24.7790     9.5940    -5.2610 hc         1 IEI       0.047950
    109 H43        -24.2180    10.9710    -4.3200 hc         1 IEI       0.047950
    110 H44        -26.9920     9.6660    -4.1140 hc         1 IEI       0.056700
    111 H45        -25.9190    12.1530    -2.6730 hc         1 IEI       0.047950
    112 H46        -27.5510    11.5040    -2.5440 hc         1 IEI       0.047950
    113 H47        -26.1060    10.8200    -0.6500 h1         1 IEI       0.035950
    114 H48        -26.7110     9.4100    -1.5380 h1         1 IEI       0.035950
    115 H49        -25.3840    13.0520    -4.8270 ha         1 IEI       0.135000
    116 H50        -29.2120    11.6140    -7.7150 ha         1 IEI       0.126000
    117 H51        -28.4140    10.1470    -5.8970 ha         1 IEI       0.120000
    118 H53        -31.6970    14.8470   -11.8820 ha         1 IEI       0.135000
    119 H54        -30.9050    12.5510   -11.3720 ha         1 IEI       0.121000
    120 H55        -29.0890    12.2040    -9.7430 ha         1 IEI       0.125000
    121 H56        -25.2370    16.6570    -6.7100 h1         1 IEI       0.107700
    122 H57        -23.7620    14.0980    -6.2250 hc         1 IEI       0.057200
    123 H58        -23.1740    15.6770    -6.7040 hc         1 IEI       0.057200
    124 H59        -23.5990    14.5870    -3.8850 hc         1 IEI       0.048200
    125 H60        -22.3830    15.7420    -4.4280 hc         1 IEI       0.048200
    126 H61        -24.4260    16.7810    -3.0470 hc         1 IEI       0.048200
    127 H62        -24.1010    17.5680    -4.5990 hc         1 IEI       0.048200
    128 H63        -26.5230    16.8180    -4.6680 hc         1 IEI       0.057200
    129 H64        -26.0710    15.2030    -4.1260 hc         1 IEI       0.057200
    130 C8         -26.3680     5.1930     0.9200 c3         1 IEI       0.160300
    131 C26        -27.3510     3.3910    -7.9290 c          1 IEI       0.622100
    132 H13        -28.2970     1.0720    -9.1560 hc         1 IEI       0.092950
@<TRIPOS>BOND
     1     1     2 ar  
     2     1    14 ar  
     3     1    69 1   
     4     2     3 ar  
     5     2     4 1   
     6     3    12 ar  
     7     3    70 1   
     8     4    30 2   
     9     4    33 1   
    10     5    15 1   
    11     5    16 1   
    12     5    17 2   
    13     6    16 1   
    14     6    18 1   
    15     6    73 1   
    16     6    74 1   
    17     7    18 1   
    18     7    19 1   
    19     7    75 1   
    20     7    76 1   
    21     8     9 1   
    22     8    21 1   
    23     8    23 1   
    24     8    77 1   
    25     9    10 1   
    26     9    24 1   
    27     9    25 1   
    28    10    78 1   
    29    10    79 1   
    30    10    80 1   
    31    11    27 1   
    32    11    28 1   
    33    11    81 1   
    34    11   132 1   
    35    12    13 ar  
    36    12    82 1   
    37    13    14 ar  
    38    13   130 1   
    39    14    35 1   
    40    15    83 1   
    41    15   130 1   
    42    16    19 1   
    43    16    84 1   
    44    18    20 1   
    45    18    85 1   
    46    19    21 1   
    47    20    86 1   
    48    21    22 2   
    49    23    87 1   
    50    23   131 1   
    51    24    88 1   
    52    24    89 1   
    53    24    90 1   
    54    25    91 1   
    55    25    92 1   
    56    25    93 1   
    57    26   131 2   
    58    27    28 1   
    59    27    94 1   
    60    27    95 1   
    61    28    29 1   
    62    28   131 1   
    63    30    31 1   
    64    30    34 1   
    65    31    32 2   
    66    32    33 1   
    67    32    96 1   
    68    34    97 1   
    69    34    98 1   
    70    34    99 1   
    71    35    36 1   
    72    36    37 1   
    73    36   100 1   
    74    36   101 1   
    75    37    38 1   
    76    37   102 1   
    77    37   103 1   
    78    38    39 1   
    79    38   104 1   
    80    38   105 1   
    81    39    40 1   
    82    39    44 1   
    83    40    41 1   
    84    40   106 1   
    85    40   107 1   
    86    41    42 1   
    87    41   108 1   
    88    41   109 1   
    89    42    43 1   
    90    42    45 1   
    91    42   110 1   
    92    43    44 1   
    93    43   111 1   
    94    43   112 1   
    95    44   113 1   
    96    44   114 1   
    97    45    46 ar  
    98    45    50 ar  
    99    46    47 ar  
   100    46   115 1   
   101    47    48 ar  
   102    47    51 1   
   103    48    49 ar  
   104    48    53 1   
   105    49    50 ar  
   106    49   116 1   
   107    50   117 1   
   108    51    52 1   
   109    51    62 1   
   110    52    53 1   
   111    52    54 2   
   112    53    57 1   
   113    54    55 1   
   114    55    56 1   
   115    55    63 2   
   116    56    57 ar  
   117    56    58 ar  
   118    57    61 ar  
   119    58    59 ar  
   120    58    64 1   
   121    59    60 ar  
   122    59   118 1   
   123    60    61 ar  
   124    60   119 1   
   125    61   120 1   
   126    62    65 1   
   127    62    68 1   
   128    62   121 1   
   129    65    66 1   
   130    65   122 1   
   131    65   123 1   
   132    66    67 1   
   133    66   124 1   
   134    66   125 1   
   135    67    68 1   
   136    67   126 1   
   137    67   127 1   
   138    68   128 1   
   139    68   129 1   
   140    71   130 1   
   141    72   130 1   
@<TRIPOS>SUBSTRUCTURE
     1 IEI         1 TEMP              0 ****  ****    0 ROOT
