@<TRIPOS>MOLECULE
IEJ
   20    20     1     0     0
SMALL
abcg2


@<TRIPOS>ATOM
      1 OAB         -1.8660    -1.7340    -0.0560 o          1 IEJ      -0.531500
      2 SAD         -1.5000    -0.3290    -0.1060 sy         1 IEJ       1.141600
      3 OAE         -1.9610     0.4810    -1.2220 o          1 IEJ      -0.531500
      4 NAC         -2.1150     0.3570     1.2520 n8         1 IEJ      -1.006100
      5 CAG          0.2790    -0.2350    -0.0220 ca         1 IEJ      -0.305500
      6 CAF          0.9460     0.9970     0.0170 ca         1 IEJ       0.013700
      7 CAH          0.9710    -1.4410    -0.0250 ca         1 IEJ      -0.014000
      8 CAK          2.3560    -1.4430     0.0110 ca         1 IEJ      -0.131000
      9 CAJ          3.0390    -0.2380     0.0480 ca         1 IEJ      -0.053000
     10 C            0.2610     2.3330     0.0680 c3         1 IEJ      -0.082800
     11 CAI          2.3370     0.9580     0.0520 ca         1 IEJ      -0.132000
     12 HAC1        -1.8130    -0.0830     2.1140 hn         1 IEJ       0.478000
     13 HAC2        -2.0290     1.3650     1.2950 hn         1 IEJ       0.478000
     14 HAH          0.4360    -2.3790    -0.0560 ha         1 IEJ       0.145000
     15 HAI          2.8820     1.8930     0.0830 ha         1 IEJ       0.115000
     16 HC1         -0.1540     2.5240     1.0600 hc         1 IEJ       0.058700
     17 HC2          0.9770     3.1280    -0.1280 hc         1 IEJ       0.058700
     18 HC3         -0.5440     2.4260    -0.6570 hc         1 IEJ       0.058700
     19 HAK          2.8930    -2.3820     0.0080 ha         1 IEJ       0.122000
     20 HAJ          4.1200    -0.2250     0.0730 ha         1 IEJ       0.118000
@<TRIPOS>BOND
     1     1     2 2   
     2     2     3 2   
     3     2     4 1   
     4     2     5 1   
     5     4    12 1   
     6     4    13 1   
     7     5     6 ar  
     8     5     7 ar  
     9     6    10 1   
    10     6    11 ar  
    11     7     8 ar  
    12     7    14 1   
    13     8     9 ar  
    14     8    19 1   
    15     9    11 ar  
    16     9    20 1   
    17    10    16 1   
    18    10    17 1   
    19    10    18 1   
    20    11    15 1   
@<TRIPOS>SUBSTRUCTURE
     1 IEJ         1 TEMP              0 ****  ****    0 ROOT
