@<TRIPOS>MOLECULE
IEJ
   20    20     1     0     0
SMALL
No Charge or Current Charge


@<TRIPOS>ATOM
      1 OAB         -2.0310    -1.6570    -0.3750 o          1 IEJ      -0.531500
      2 SAD         -1.5810    -0.2930    -0.0960 sy         1 IEJ       1.141600
      3 OAE         -2.1240     0.8690    -0.7950 o          1 IEJ      -0.531500
      4 NAC         -1.9820    -0.0220     1.4660 n8         1 IEJ      -1.006100
      5 CAG          0.2260    -0.2170    -0.0220 ca         1 IEJ      -0.305500
      6 CAF          0.9640     1.0020    -0.0040 ca         1 IEJ       0.013700
      7 CAH          0.9250    -1.4460     0.0290 ca         1 IEJ      -0.014000
      8 CAK          2.3260    -1.4740     0.0870 ca         1 IEJ      -0.131000
      9 CAJ          3.0520    -0.2770     0.0970 ca         1 IEJ      -0.053000
     10 C            0.3110     2.3830    -0.0390 c3         1 IEJ      -0.082800
     11 CAI          2.3730     0.9500     0.0520 ca         1 IEJ      -0.132000
     12 HAC1        -1.1190     0.3640     1.8400 hn         1 IEJ       0.478000
     13 HAC2        -2.5900     0.7870     1.3670 hn         1 IEJ       0.478000
     14 HAH          0.3860    -2.3930     0.0240 ha         1 IEJ       0.145000
     15 HAI          2.9530     1.8700     0.0630 ha         1 IEJ       0.115000
     16 HC1         -0.4760     2.4840     0.7160 hc         1 IEJ       0.058700
     17 HC2          1.0380     3.1790     0.1600 hc         1 IEJ       0.058700
     18 HC3         -0.1240     2.5890    -1.0240 hc         1 IEJ       0.058700
     19 HAK          2.8500    -2.4270     0.1240 ha         1 IEJ       0.122000
     20 HAJ          4.1390    -0.2970     0.1410 ha         1 IEJ       0.118000
@<TRIPOS>BOND
     1     1     2 2   
     2     2     3 2   
     3     2     4 1   
     4     2     5 1   
     5     4    12 1   
     6     4    13 1   
     7     5     6 ar  
     8     5     7 ar  
     9     6    10 1   
    10     6    11 ar  
    11     7     8 ar  
    12     7    14 1   
    13     8     9 ar  
    14     8    19 1   
    15     9    11 ar  
    16     9    20 1   
    17    10    16 1   
    18    10    17 1   
    19    10    18 1   
    20    11    15 1   
@<TRIPOS>SUBSTRUCTURE
     1 IEJ         1 TEMP              0 ****  ****    0 ROOT
