@<TRIPOS>MOLECULE
IEK
   39    41     1     0     0
SMALL
bcc


@<TRIPOS>ATOM
      1 N            4.1180   -24.1700   -13.2380 ns         1 IEK      -0.484900
      2 C            3.0980   -23.8640   -15.4680 c          1 IEK       0.930600
      3 OXT          2.3020   -24.7380   -15.0850 o          1 IEK      -0.819800
      4 C6           4.3830   -24.2900    -9.5830 ca         1 IEK       0.288900
      5 C4           4.2280   -27.4550    -7.8720 c          1 IEK       0.636000
      6 C7           4.2380   -24.6960   -10.9170 ca         1 IEK       0.318500
      7 C2           3.9270   -29.0570    -9.6770 cc         1 IEK       0.740800
      8 N1           3.9280   -28.1650   -10.6320 nd         1 IEK      -0.760700
      9 CD1          7.2760   -24.1590   -13.3170 ca         1 IEK      -0.125500
     10 CE1          8.2510   -23.7960   -12.3970 ca         1 IEK      -0.134000
     11 CZ           8.6810   -22.4780   -12.3190 ca         1 IEK      -0.148000
     12 CE2          8.1320   -21.5280   -13.1720 ca         1 IEK      -0.134000
     13 CD2          7.1550   -21.8960   -14.0870 ca         1 IEK      -0.125500
     14 CG           6.7080   -23.2130   -14.1690 ca         1 IEK      -0.051300
     15 CB           5.6000   -23.5900   -15.1070 c3         1 IEK      -0.043100
     16 CA           4.2060   -23.4270   -14.4680 c3         1 IEK      -0.043300
     17 O            3.1280   -23.2860   -16.5690 o          1 IEK      -0.819800
     18 CAL          4.2770   -23.6650   -12.0180 c          1 IEK       0.560600
     19 OAQ          4.4440   -22.4830   -11.7430 o          1 IEK      -0.634100
     20 N8           4.0870   -25.9590   -11.2490 nb         1 IEK      -0.637000
     21 C8A          4.0790   -26.8750   -10.2730 ca         1 IEK       0.587000
     22 N2           3.7870   -30.3460    -9.9710 nv         1 IEK      -0.954800
     23 N3           4.0660   -28.7370    -8.3530 ns         1 IEK      -0.530400
     24 C4A          4.2310   -26.4490    -8.9390 ca         1 IEK       0.143500
     25 N5           4.3790   -25.1740    -8.6090 nb         1 IEK      -0.585000
     26 H1           3.9220   -25.1580   -13.3070 hn         1 IEK       0.349500
     27 H4           6.9490   -25.1910   -13.3730 ha         1 IEK       0.129500
     28 H5           8.6770   -24.5440   -11.7410 ha         1 IEK       0.113500
     29 H6           9.4410   -22.1930   -11.6030 ha         1 IEK       0.111000
     30 H7           8.4660   -20.4990   -13.1250 ha         1 IEK       0.113500
     31 H8           6.7270   -21.1480   -14.7450 ha         1 IEK       0.129500
     32 H9           5.6310   -22.9680   -16.0020 hc         1 IEK       0.058700
     33 H10          5.7220   -24.6280   -15.4300 hc         1 IEK       0.058700
     34 H11          4.0580   -22.3690   -14.2340 h1         1 IEK       0.066700
     35 H12          3.6880   -30.6180   -10.9340 hn         1 IEK       0.454300
     36 H13          3.7910   -31.0700    -9.2730 hn         1 IEK       0.454300
     37 H14          4.0530   -29.4780    -7.6620 hn         1 IEK       0.315500
     38 O4           4.3500   -27.2290    -6.6890 o          1 IEK      -0.585500
     39 H3           4.5050   -23.2470    -9.3220 h4         1 IEK       0.058100
@<TRIPOS>BOND
     1     1    16 1   
     2     1    18 1   
     3     1    26 1   
     4     2     3 1   
     5     2    16 1   
     6     2    17 1   
     7     4     6 ar  
     8     4    25 ar  
     9     4    39 1   
    10     5    23 1   
    11     5    24 1   
    12     5    38 2   
    13     6    18 1   
    14     6    20 ar  
    15     7     8 2   
    16     7    22 1   
    17     7    23 1   
    18     8    21 1   
    19     9    10 ar  
    20     9    14 ar  
    21     9    27 1   
    22    10    11 ar  
    23    10    28 1   
    24    11    12 ar  
    25    11    29 1   
    26    12    13 ar  
    27    12    30 1   
    28    13    14 ar  
    29    13    31 1   
    30    14    15 1   
    31    15    16 1   
    32    15    32 1   
    33    15    33 1   
    34    16    34 1   
    35    18    19 2   
    36    20    21 ar  
    37    21    24 ar  
    38    22    35 1   
    39    22    36 1   
    40    23    37 1   
    41    24    25 ar  
@<TRIPOS>SUBSTRUCTURE
     1 IEK         1 TEMP              0 ****  ****    0 ROOT
