@<TRIPOS>MOLECULE
IEK
   39    41     1     0     0
SMALL
No Charge or Current Charge


@<TRIPOS>ATOM
      1 N            4.0860   -24.1880   -13.2980 ns         1 IEK      -0.417900
      2 C            3.1200   -23.8160   -15.5710 c          1 IEK       0.720000
      3 OXT          2.9170   -25.0100   -15.7560 o          1 IEK      -0.714500
      4 C6           4.3610   -24.2860    -9.5670 ca         1 IEK       0.288900
      5 C4           4.1090   -27.5150    -7.7690 c          1 IEK       0.493500
      6 C7           4.2030   -24.7070   -10.9010 ca         1 IEK       0.055500
      7 C2           3.7840   -29.0910    -9.5200 cc         1 IEK       0.740800
      8 N1           3.7970   -28.2900   -10.5490 nd         1 IEK      -0.760700
      9 CD1          7.4520   -24.1780   -13.4960 ca         1 IEK      -0.107500
     10 CE1          8.4780   -23.8380   -12.5980 ca         1 IEK      -0.116000
     11 CZ           8.8180   -22.4890   -12.3980 ca         1 IEK      -0.130000
     12 CE2          8.1300   -21.4820   -13.0950 ca         1 IEK      -0.116000
     13 CD2          7.1020   -21.8230   -13.9910 ca         1 IEK      -0.107500
     14 CG           6.7560   -23.1720   -14.1970 ca         1 IEK      -0.051300
     15 CB           5.6360   -23.5390   -15.1640 c3         1 IEK      -0.043100
     16 CA           4.2190   -23.4020   -14.5500 c3         1 IEK      -0.043300
     17 O            2.4420   -22.9340   -16.0780 o          1 IEK      -0.714500
     18 CAL          4.2450   -23.6910   -12.0150 c          1 IEK       0.493600
     19 OAQ          4.4040   -22.4950   -11.8030 o          1 IEK      -0.634100
     20 N8           4.0200   -26.0160   -11.2040 nb         1 IEK      -0.111000
     21 C8A          3.9890   -26.9300   -10.2060 ca         1 IEK       0.324000
     22 N2           3.6140   -30.3640    -9.7930 nv         1 IEK      -1.065200
     23 N3           3.9250   -28.7780    -8.2220 ns         1 IEK      -0.463400
     24 C4A          4.1510   -26.4780    -8.8590 ca         1 IEK       0.143500
     25 N5           4.3360   -25.1620    -8.5370 nb         1 IEK      -0.585000
     26 H1           3.9140   -25.1850   -13.3830 hn         1 IEK       0.349500
     27 H4           7.1930   -25.2250   -13.6430 ha         1 IEK       0.111500
     28 H5           9.0100   -24.6180   -12.0590 ha         1 IEK       0.095500
     29 H6           9.6130   -22.2260   -11.7040 ha         1 IEK       0.093000
     30 H7           8.3920   -20.4380   -12.9400 ha         1 IEK       0.095500
     31 H8           6.5700   -21.0370   -14.5230 ha         1 IEK       0.111500
     32 H9           5.6950   -22.9060   -16.0580 hc         1 IEK       0.058700
     33 H10          5.7720   -24.5690   -15.5190 hc         1 IEK       0.058700
     34 H11          4.0500   -22.3440   -14.3150 h1         1 IEK       0.066700
     35 H12          3.6970   -30.5590   -10.7830 hn         1 IEK       0.509500
     36 H13          4.0890   -31.0250    -9.1910 hn         1 IEK       0.509500
     37 H14          3.8650   -29.5080    -7.5310 hn         1 IEK       0.315500
     38 O4           4.2240   -27.2810    -6.5730 o          1 IEK      -0.510000
     39 H3           4.5110   -23.2370    -9.3130 h4         1 IEK       0.058100
@<TRIPOS>BOND
     1     1    16 1   
     2     1    18 1   
     3     1    26 1   
     4     2     3 1   
     5     2    16 1   
     6     2    17 1   
     7     4     6 ar  
     8     4    25 ar  
     9     4    39 1   
    10     5    23 1   
    11     5    24 1   
    12     5    38 2   
    13     6    18 1   
    14     6    20 ar  
    15     7     8 2   
    16     7    22 1   
    17     7    23 1   
    18     8    21 1   
    19     9    10 ar  
    20     9    14 ar  
    21     9    27 1   
    22    10    11 ar  
    23    10    28 1   
    24    11    12 ar  
    25    11    29 1   
    26    12    13 ar  
    27    12    30 1   
    28    13    14 ar  
    29    13    31 1   
    30    14    15 1   
    31    15    16 1   
    32    15    32 1   
    33    15    33 1   
    34    16    34 1   
    35    18    19 2   
    36    20    21 ar  
    37    21    24 ar  
    38    22    35 1   
    39    22    36 1   
    40    23    37 1   
    41    24    25 ar  
@<TRIPOS>SUBSTRUCTURE
     1 IEK         1 TEMP              0 ****  ****    0 ROOT
