@<TRIPOS>MOLECULE
IEL
   29    28     1     0     0
SMALL
No Charge or Current Charge


@<TRIPOS>ATOM
      1 O           34.1930    16.3040    22.9520 o          1 IEL      -0.735500
      2 C           33.5960    17.1350    22.2770 c          1 IEL       0.691000
      3 OXT         33.8300    18.3340    22.3390 o          1 IEL      -0.735500
      4 CA          32.5840    16.6230    21.1700 c3         1 IEL       0.014500
      5 N           33.1130    15.5670    20.2290 n8         1 IEL      -0.999200
      6 CB          31.2540    16.1660    21.8310 c3         1 IEL      -0.050400
      7 CG          30.0710    15.9880    20.8460 c3         1 IEL      -0.074400
      8 C1          28.7530    15.5910    21.5560 c3         1 IEL      -0.103400
      9 CD          27.5170    15.4970    20.6320 c3         1 IEL       0.228800
     10 NE          27.5900    14.3250    19.7370 nu         1 IEL      -0.967400
     11 CZ          28.1170    14.2700    18.4750 c2         1 IEL       0.639200
     12 NH1         28.3290    15.3510    17.8540 n2         1 IEL      -0.853100
     13 CH2         28.2520    12.8950    17.8760 c3         1 IEL      -0.140400
     14 HA          32.3480    17.5000    20.5510 h1         1 IEL       0.038700
     15 HN          33.9630    15.9220    19.7730 hn         1 IEL       0.380000
     16 HNA         33.4630    14.7820    20.7920 hn         1 IEL       0.380000
     17 HB          31.4200    15.2290    22.3780 hc         1 IEL       0.035200
     18 HBA         30.9670    16.9160    22.5790 hc         1 IEL       0.035200
     19 HG          29.9160    16.9250    20.2970 hc         1 IEL       0.041700
     20 HG'A        30.3280    15.2200    20.1070 hc         1 IEL       0.041700
     21 H1          28.8900    14.6370    22.0800 hc         1 IEL       0.037200
     22 HGA         28.5360    16.3400    22.3270 hc         1 IEL       0.037200
     23 HD          26.6320    15.3860    21.2730 h1         1 IEL       0.033200
     24 HDA         27.3880    16.4330    20.0720 h1         1 IEL       0.033200
     25 HNE         27.3860    13.4180    20.1520 hn         1 IEL       0.472000
     26 HNH1        28.0970    16.1000    18.5120 hn         1 IEL       0.378400
     27 HH2         28.7250    12.9360    16.8880 hc         1 IEL       0.048367
     28 HH2A        28.8670    12.2490    18.5120 hc         1 IEL       0.048367
     29 HH2B        27.2700    12.4220    17.7570 hc         1 IEL       0.048367
@<TRIPOS>BOND
     1     1     2 1   
     2     2     3 1   
     3     2     4 1   
     4     4     5 1   
     5     4     6 1   
     6     4    14 1   
     7     5    15 1   
     8     5    16 1   
     9     6     7 1   
    10     6    17 1   
    11     6    18 1   
    12     7     8 1   
    13     7    19 1   
    14     7    20 1   
    15     8     9 1   
    16     8    21 1   
    17     8    22 1   
    18     9    10 1   
    19     9    23 1   
    20     9    24 1   
    21    10    11 1   
    22    10    25 1   
    23    11    12 2   
    24    11    13 1   
    25    12    26 1   
    26    13    27 1   
    27    13    28 1   
    28    13    29 1   
@<TRIPOS>SUBSTRUCTURE
     1 IEL         1 TEMP              0 ****  ****    0 ROOT
