@<TRIPOS>MOLECULE
IEL
   29    28     1     0     0
SMALL
abcg2


@<TRIPOS>ATOM
      1 O           34.4070    16.2940    22.6160 o          1 IEL      -0.735500
      2 C           33.5570    17.1060    22.1950 c          1 IEL       0.691000
      3 OXT         33.4020    18.2870    22.5730 o          1 IEL      -0.735500
      4 CA          32.5560    16.5920    21.1290 c3         1 IEL       0.014500
      5 N           33.0050    15.4360    20.3630 n8         1 IEL      -0.999200
      6 CB          31.2250    16.2760    21.8180 c3         1 IEL      -0.050400
      7 CG          30.0820    15.9550    20.8650 c3         1 IEL      -0.074400
      8 C1          28.7910    15.6220    21.6010 c3         1 IEL      -0.103400
      9 CD          27.5890    15.3870    20.6920 c3         1 IEL       0.228800
     10 NE          27.7300    14.2700    19.7880 nu         1 IEL      -0.967400
     11 CZ          28.1250    14.3310    18.4900 c2         1 IEL       0.639200
     12 NH1         28.4130    15.3760    17.8060 n2         1 IEL      -0.853100
     13 CH2         28.1980    12.9850    17.8220 c3         1 IEL      -0.140400
     14 HA          32.3730    17.4060    20.4180 h1         1 IEL       0.038700
     15 HN          33.8120    15.7060    19.8120 hn         1 IEL       0.380000
     16 HNA         33.3690    14.7580    21.0230 hn         1 IEL       0.380000
     17 HB          31.3740    15.4350    22.5080 hc         1 IEL       0.035200
     18 HBA         30.9430    17.1310    22.4400 hc         1 IEL       0.035200
     19 HG          29.9140    16.8120    20.2030 hc         1 IEL       0.041700
     20 HG'A        30.3680    15.1210    20.2210 hc         1 IEL       0.041700
     21 H1          28.9460    14.7400    22.2320 hc         1 IEL       0.037200
     22 HGA         28.5370    16.4400    22.2840 hc         1 IEL       0.037200
     23 HD          26.7010    15.2130    21.3050 h1         1 IEL       0.033200
     24 HDA         27.3780    16.2890    20.1130 h1         1 IEL       0.033200
     25 HNE         27.6000    13.3540    20.1860 hn         1 IEL       0.472000
     26 HNH1        28.3490    16.2250    18.3600 hn         1 IEL       0.378400
     27 HH2         28.4920    13.0970    16.7820 hc         1 IEL       0.048367
     28 HH2A        28.9260    12.3420    18.3210 hc         1 IEL       0.048367
     29 HH2B        27.2350    12.4750    17.8600 hc         1 IEL       0.048367
@<TRIPOS>BOND
     1     1     2 1   
     2     2     3 1   
     3     2     4 1   
     4     4     5 1   
     5     4     6 1   
     6     4    14 1   
     7     5    15 1   
     8     5    16 1   
     9     6     7 1   
    10     6    17 1   
    11     6    18 1   
    12     7     8 1   
    13     7    19 1   
    14     7    20 1   
    15     8     9 1   
    16     8    21 1   
    17     8    22 1   
    18     9    10 1   
    19     9    23 1   
    20     9    24 1   
    21    10    11 1   
    22    10    25 1   
    23    11    12 2   
    24    11    13 1   
    25    12    26 1   
    26    13    27 1   
    27    13    28 1   
    28    13    29 1   
@<TRIPOS>SUBSTRUCTURE
     1 IEL         1 TEMP              0 ****  ****    0 ROOT
