@<TRIPOS>MOLECULE
IEM
   37    37     1     0     0
SMALL
No Charge or Current Charge


@<TRIPOS>ATOM
      1 C1           1.2730    -3.6120    -0.1980 c          1 IEM       0.725200
      2 C2           0.3350    -2.4270     0.0930 ce         1 IEM       0.061900
      3 C3          -0.9790    -2.5780     0.4170 c2         1 IEM      -0.439200
      4 C4          -1.8970    -1.4110     0.6840 c6         1 IEM       0.224500
      5 C5          -1.3210    -0.1030     0.0790 c6         1 IEM       0.078700
      6 C6           0.1660    -0.0280     0.5250 c6         1 IEM       0.375300
      7 O7           0.7900     1.1820     0.0590 os         1 IEM      -0.445000
      8 C7           2.1100     1.4500     0.5580 c3         1 IEM       0.172600
      9 C8           2.5840     2.8110    -0.0120 c3         1 IEM      -0.065700
     10 C9           3.9200     3.2470     0.6290 c3         1 IEM      -0.084600
     11 C10          2.6850     2.8020    -1.5570 c3         1 IEM      -0.084600
     12 C12         -3.0980     3.3170     0.4500 c3         1 IEM      -0.182100
     13 N5          -2.1110     1.0840     0.4980 ns         1 IEM      -0.485900
     14 O1A          2.4470    -3.3870    -0.4760 o          1 IEM      -0.694500
     15 O1B          0.8230    -4.7510    -0.1430 o          1 IEM      -0.694500
     16 O4          -3.1700    -1.7160     0.1260 oh         1 IEM      -0.659000
     17 O6           0.9080    -1.1600     0.0200 os         1 IEM      -0.341100
     18 O11         -1.8890     2.3390    -1.3950 o          1 IEM      -0.600100
     19 H3          -1.4180    -3.5740     0.4860 ha         1 IEM       0.207000
     20 H4          -1.9890    -1.2860     1.7720 h1         1 IEM       0.001700
     21 H5          -1.3420    -0.1840    -1.0170 h1         1 IEM       0.122700
     22 H6           0.1980    -0.0440     1.6240 h2         1 IEM       0.009700
     23 H71          2.8130     0.6620     0.2570 h1         1 IEM       0.035700
     24 H72          2.0990     1.4990     1.6550 h1         1 IEM       0.035700
     25 H8           1.8330     3.5620     0.2650 hc         1 IEM       0.039700
     26 H91          4.2220     4.2360     0.2630 hc         1 IEM       0.032700
     27 H92          3.8260     3.3050     1.7200 hc         1 IEM       0.032700
     28 H93          4.7190     2.5340     0.3910 hc         1 IEM       0.032700
     29 H101         1.7150     2.5760    -2.0140 hc         1 IEM       0.032700
     30 H102         3.0100     3.7810    -1.9290 hc         1 IEM       0.032700
     31 H103         3.4080     2.0490    -1.8960 hc         1 IEM       0.032700
     32 H121        -4.0530     2.9040     0.7940 hc         1 IEM       0.049033
     33 H122        -2.6010     3.5690     1.3940 hc         1 IEM       0.049033
     34 H123        -3.2430     4.2030    -0.1790 hc         1 IEM       0.049033
     35 HN5         -2.5240     1.0810     1.4220 hn         1 IEM       0.295500
     36 HO4         -3.4980    -2.5030     0.6100 ho         1 IEM       0.436000
     37 C11         -2.3050     2.2200    -0.2520 c          1 IEM       0.611100
@<TRIPOS>BOND
     1     1     2 1   
     2     1    14 1   
     3     1    15 1   
     4     2     3 2   
     5     2    17 1   
     6     3     4 1   
     7     3    19 1   
     8     4     5 1   
     9     4    16 1   
    10     4    20 1   
    11     5     6 1   
    12     5    13 1   
    13     5    21 1   
    14     6     7 1   
    15     6    17 1   
    16     6    22 1   
    17     7     8 1   
    18     8     9 1   
    19     8    23 1   
    20     8    24 1   
    21     9    10 1   
    22     9    11 1   
    23     9    25 1   
    24    10    26 1   
    25    10    27 1   
    26    10    28 1   
    27    11    29 1   
    28    11    30 1   
    29    11    31 1   
    30    12    32 1   
    31    12    33 1   
    32    12    34 1   
    33    12    37 1   
    34    13    35 1   
    35    13    37 1   
    36    16    36 1   
    37    18    37 2   
@<TRIPOS>SUBSTRUCTURE
     1 IEM         1 TEMP              0 ****  ****    0 ROOT
