@<TRIPOS>MOLECULE
IEM
   37    37     1     0     0
SMALL
bcc


@<TRIPOS>ATOM
      1 C1           1.1850    -3.7230    -0.0520 c          1 IEM       0.935800
      2 C2           0.2920    -2.5000     0.1450 ce         1 IEM       0.061900
      3 C3          -0.9880    -2.5740     0.5100 c2         1 IEM      -0.389200
      4 C4          -1.8850    -1.3800     0.6480 c6         1 IEM       0.201300
      5 C5          -1.2140    -0.1680     0.0170 c6         1 IEM       0.078700
      6 C6           0.2640    -0.1680     0.4110 c6         1 IEM       0.328900
      7 O7           0.8610     0.9390    -0.1220 os         1 IEM      -0.398600
      8 C7           2.1190     1.3060     0.4160 c3         1 IEM       0.149400
      9 C8           2.3540     2.7880     0.1700 c3         1 IEM      -0.065700
     10 C9           3.7100     3.1860     0.7440 c3         1 IEM      -0.084600
     11 C10          2.2620     3.1410    -1.3110 c3         1 IEM      -0.084600
     12 C12         -2.6520     3.3220     0.2750 c3         1 IEM      -0.182100
     13 N5          -1.8560     1.0540     0.4210 ns         1 IEM      -0.552900
     14 O1A          2.3610    -3.4930    -0.3740 o          1 IEM      -0.799800
     15 O1B          0.6420    -4.8280     0.1270 o          1 IEM      -0.799800
     16 O4          -3.1270    -1.5650     0.0040 oh         1 IEM      -0.596800
     17 O6           0.9160    -1.3200    -0.0930 os         1 IEM      -0.317900
     18 O11         -1.8870     2.0630    -1.6050 o          1 IEM      -0.600100
     19 H3          -1.4030    -3.5520     0.7170 ha         1 IEM       0.157000
     20 H4          -2.0460    -1.1730     1.7180 h1         1 IEM       0.001700
     21 H5          -1.2820    -0.2500    -1.0710 h1         1 IEM       0.122700
     22 H6           0.3520    -0.1820     1.5130 h2         1 IEM       0.009700
     23 H71          2.9230     0.7210    -0.0500 h1         1 IEM       0.035700
     24 H72          2.1450     1.0980     1.4940 h1         1 IEM       0.035700
     25 H8           1.5760     3.3410     0.7080 hc         1 IEM       0.039700
     26 H91          3.8820     4.2560     0.6230 hc         1 IEM       0.032700
     27 H92          3.7820     2.9600     1.8090 hc         1 IEM       0.032700
     28 H93          4.5230     2.6620     0.2360 hc         1 IEM       0.032700
     29 H101         1.2720     2.9350    -1.7180 hc         1 IEM       0.032700
     30 H102         2.4700     4.2010    -1.4670 hc         1 IEM       0.032700
     31 H103         2.9920     2.5740    -1.8940 hc         1 IEM       0.032700
     32 H121        -2.9720     3.1490     1.3010 hc         1 IEM       0.049033
     33 H122        -1.8870     4.1000     0.2850 hc         1 IEM       0.049033
     34 H123        -3.4970     3.7030    -0.2950 hc         1 IEM       0.049033
     35 HN5         -2.0300     1.1790     1.4050 hn         1 IEM       0.295500
     36 HO4         -3.6140    -2.2450     0.4810 ho         1 IEM       0.397000
     37 C11         -2.0950     2.0930    -0.4020 c          1 IEM       0.678100
@<TRIPOS>BOND
     1     1     2 1   
     2     1    14 1   
     3     1    15 1   
     4     2     3 2   
     5     2    17 1   
     6     3     4 1   
     7     3    19 1   
     8     4     5 1   
     9     4    16 1   
    10     4    20 1   
    11     5     6 1   
    12     5    13 1   
    13     5    21 1   
    14     6     7 1   
    15     6    17 1   
    16     6    22 1   
    17     7     8 1   
    18     8     9 1   
    19     8    23 1   
    20     8    24 1   
    21     9    10 1   
    22     9    11 1   
    23     9    25 1   
    24    10    26 1   
    25    10    27 1   
    26    10    28 1   
    27    11    29 1   
    28    11    30 1   
    29    11    31 1   
    30    12    32 1   
    31    12    33 1   
    32    12    34 1   
    33    12    37 1   
    34    13    35 1   
    35    13    37 1   
    36    16    36 1   
    37    18    37 2   
@<TRIPOS>SUBSTRUCTURE
     1 IEM         1 TEMP              0 ****  ****    0 ROOT
