@<TRIPOS>MOLECULE
IEN
   48    52     1     0     0
SMALL
bcc


@<TRIPOS>ATOM
      1 C10         34.6070    35.3770    61.9710 ca         1 IEN       0.411600
      2 C11         33.4770    29.8010    60.7030 ca         1 IEN       0.540800
      3 C15         37.0220    34.6680    62.5150 cx         1 IEN      -0.115400
      4 C16         32.7420    29.8160    57.3450 cc         1 IEN       0.340200
      5 C21         33.2510    37.0840    60.9670 ca         1 IEN      -0.175000
      6 C22         31.7700    37.8330    58.4720 ca         1 IEN      -0.065000
      7 C23         34.1030    36.6860    61.9640 ca         1 IEN      -0.173300
      8 C24         31.0990    40.2370    57.5130 ca         1 IEN       0.615900
      9 C25         30.5470    38.0750    57.8450 ca         1 IEN       0.394200
     10 C26         32.6320    38.9280    58.5400 ca         1 IEN       0.394200
     11 C27         33.2360    28.4920    61.1180 ca         1 IEN      -0.228300
     12 C28         34.1330    30.4420    62.7880 ca         1 IEN       0.433200
     13 C1          33.1600    31.4100    58.7960 cd         1 IEN       0.095300
     14 N2          33.2410    30.1660    59.3670 na         1 IEN       0.021600
     15 C3          33.3830    34.8790    60.0770 ca         1 IEN       0.282800
     16 N4          34.2070    34.5170    61.0600 nb         1 IEN      -0.646000
     17 C5          32.9890    33.7950    59.1360 c          1 IEN       0.601600
     18 N6          33.3980    32.5590    59.5130 ns         1 IEN      -0.434100
     19 N7          32.9860    29.1950    58.4700 nd         1 IEN      -0.527800
     20 C8          32.8960    36.1920    59.9400 ca         1 IEN       0.135300
     21 C9          32.8310    31.2120    57.4750 cc         1 IEN      -0.328300
     22 C12         35.6150    34.9690    62.9760 cx         1 IEN      -0.188000
     23 N13         32.0740    36.5560    58.9060 nu         1 IEN      -0.639000
     24 C14         36.1470    33.5730    63.0240 cx         1 IEN      -0.115400
     25 N17         33.9200    30.7470    61.5110 nb         1 IEN      -0.734000
     26 O18         32.3380    34.0020    58.1200 o          1 IEN      -0.617100
     27 N19         30.2150    39.2610    57.3660 nb         1 IEN      -0.676500
     28 N20         32.2910    40.1200    58.0740 nb         1 IEN      -0.676500
     29 C29         33.4750    28.1890    62.4440 ca         1 IEN      -0.076000
     30 C30         33.9300    29.1790    63.3070 ca         1 IEN      -0.262300
     31 H38         37.2120    34.7080    61.4490 hc         1 IEN       0.077950
     32 H37         37.8390    35.0180    63.1330 hc         1 IEN       0.077950
     33 H39         32.5120    29.2510    56.4540 h4         1 IEN       0.040100
     34 H40         32.8460    38.0870    60.9880 ha         1 IEN       0.150000
     35 H41         34.3810    37.3800    62.7460 ha         1 IEN       0.146000
     36 H42         30.8240    41.2150    57.1340 h5         1 IEN       0.054100
     37 H43         29.8280    37.2690    57.7260 h4         1 IEN       0.032100
     38 H44         33.6240    38.8390    58.9680 h4         1 IEN       0.032100
     39 H45         32.8710    27.7470    60.4280 ha         1 IEN       0.175000
     40 H46         34.4840    31.2490    63.4190 h4         1 IEN       0.026100
     41 H31         33.8600    32.4610    60.4140 hn         1 IEN       0.389500
     42 H32         32.6880    31.9530    56.7110 ha         1 IEN       0.187000
     43 H33         35.5400    35.4990    63.9190 hc         1 IEN       0.084700
     44 H34         31.7560    35.7860    58.3270 hn         1 IEN       0.488800
     45 H35         36.3590    33.1510    63.9980 hc         1 IEN       0.077950
     46 H36         35.7610    32.8700    62.2990 hc         1 IEN       0.077950
     47 H47         33.3000    27.1840    62.8030 ha         1 IEN       0.143000
     48 H48         34.1220    28.9770    64.3510 ha         1 IEN       0.148000
@<TRIPOS>BOND
     1     1     7 ar  
     2     1    16 ar  
     3     1    22 1   
     4     2    11 ar  
     5     2    14 1   
     6     2    25 ar  
     7     3    22 1   
     8     3    24 1   
     9     3    31 1   
    10     3    32 1   
    11     4    19 2   
    12     4    21 1   
    13     4    33 1   
    14     5     7 ar  
    15     5    20 ar  
    16     5    34 1   
    17     6     9 ar  
    18     6    10 ar  
    19     6    23 1   
    20     7    35 1   
    21     8    27 ar  
    22     8    28 ar  
    23     8    36 1   
    24     9    27 ar  
    25     9    37 1   
    26    10    28 ar  
    27    10    38 1   
    28    11    29 ar  
    29    11    39 1   
    30    12    25 ar  
    31    12    30 ar  
    32    12    40 1   
    33    13    14 1   
    34    13    18 1   
    35    13    21 2   
    36    14    19 1   
    37    15    16 ar  
    38    15    17 1   
    39    15    20 ar  
    40    17    18 1   
    41    17    26 2   
    42    18    41 1   
    43    20    23 1   
    44    21    42 1   
    45    22    24 1   
    46    22    43 1   
    47    23    44 1   
    48    24    45 1   
    49    24    46 1   
    50    29    30 ar  
    51    29    47 1   
    52    30    48 1   
@<TRIPOS>SUBSTRUCTURE
     1 IEN         1 TEMP              0 ****  ****    0 ROOT
