@<TRIPOS>MOLECULE
IEN
   48    52     1     0     0
SMALL
No Charge or Current Charge


@<TRIPOS>ATOM
      1 C10         34.2480    35.1690    62.1860 ca         1 IEN       0.346300
      2 C11         33.7800    29.7710    60.3870 ca         1 IEN       0.475500
      3 C15         36.3970    35.1110    63.7090 cx         1 IEN      -0.115400
      4 C16         31.8710    29.6460    57.4830 cc         1 IEN       0.274900
      5 C21         33.2730    37.0440    60.9910 ca         1 IEN      -0.157000
      6 C22         31.9600    37.8890    58.2720 ca         1 IEN       0.204000
      7 C23         34.0110    36.5490    62.0820 ca         1 IEN      -0.090000
      8 C24         31.7400    40.2450    56.9660 ca         1 IEN       0.089900
      9 C25         30.8480    38.1870    57.4540 ca         1 IEN       0.065900
     10 C26         32.9640    38.8830    58.3520 ca         1 IEN       0.065900
     11 C27         33.3120    28.7950    61.2960 ca         1 IEN      -0.145000
     12 C28         35.5430    30.2830    61.8440 ca         1 IEN       0.367900
     13 C1          32.6200    31.2260    58.8630 cd         1 IEN       0.044600
     14 N2          33.0330    29.9300    59.2010 na         1 IEN       0.072300
     15 C3          33.0450    34.7500    60.2190 ca         1 IEN       0.217500
     16 N4          33.7720    34.2820    61.2880 nb         1 IEN      -0.646000
     17 C5          32.4910    33.7070    59.2450 c          1 IEN       0.534600
     18 N6          32.9140    32.4170    59.5130 ns         1 IEN      -0.367100
     19 N7          32.5580    28.9280    58.3550 nd         1 IEN      -0.527800
     20 C8          32.7920    36.1470    60.0180 ca         1 IEN       0.339000
     21 C9          31.8710    31.0300    57.7430 cc         1 IEN      -0.245000
     22 C12         35.0230    34.5960    63.3360 cx         1 IEN      -0.188000
     23 N13         32.0560    36.6380    58.9180 nu         1 IEN      -0.971000
     24 C14         36.2450    33.7250    63.1310 cx         1 IEN      -0.115400
     25 N17         34.8930    30.5040    60.6790 nb         1 IEN      -0.734000
     26 O18         31.7240    33.9700    58.3210 o          1 IEN      -0.617100
     27 N19         30.7300    39.3650    56.8040 nb         1 IEN      -0.150500
     28 N20         32.8560    40.0630    57.7030 nb         1 IEN      -0.150500
     29 C29         33.9830    28.5670    62.5080 ca         1 IEN      -0.058000
     30 C30         35.1240    29.3320    62.7830 ca         1 IEN      -0.179000
     31 H38         36.8490    35.8730    63.0780 hc         1 IEN       0.077950
     32 H37         36.6370    35.1970    64.7670 hc         1 IEN       0.077950
     33 H39         31.3720    29.1360    56.6700 h4         1 IEN       0.040100
     34 H40         33.0660    38.1070    60.9240 ha         1 IEN       0.132000
     35 H41         34.3910    37.2260    62.8430 ha         1 IEN       0.128000
     36 H42         31.6490    41.1960    56.4430 h5         1 IEN       0.054100
     37 H43         30.0350    37.4750    57.3210 h4         1 IEN       0.032100
     38 H44         33.8810    38.7310    58.9180 h4         1 IEN       0.032100
     39 H45         32.4230    28.2190    61.0570 ha         1 IEN       0.157000
     40 H46         36.4300    30.8900    62.0280 h4         1 IEN       0.026100
     41 H31         33.5470    32.3860    60.3110 hn         1 IEN       0.389500
     42 H32         31.3580    31.7700    57.1400 ha         1 IEN       0.169000
     43 H33         34.3680    34.3230    64.1600 hc         1 IEN       0.084700
     44 H34         31.5630    35.8750    58.4260 hn         1 IEN       0.544000
     45 H35         36.3820    32.8780    63.7990 hc         1 IEN       0.077950
     46 H36         36.5900    33.5620    62.1120 hc         1 IEN       0.077950
     47 H47         33.6270    27.8180    63.2140 ha         1 IEN       0.125000
     48 H48         35.6800    29.1940    63.7050 ha         1 IEN       0.130000
@<TRIPOS>BOND
     1     1     7 ar  
     2     1    16 ar  
     3     1    22 1   
     4     2    11 ar  
     5     2    14 1   
     6     2    25 ar  
     7     3    22 1   
     8     3    24 1   
     9     3    31 1   
    10     3    32 1   
    11     4    19 2   
    12     4    21 1   
    13     4    33 1   
    14     5     7 ar  
    15     5    20 ar  
    16     5    34 1   
    17     6     9 ar  
    18     6    10 ar  
    19     6    23 1   
    20     7    35 1   
    21     8    27 ar  
    22     8    28 ar  
    23     8    36 1   
    24     9    27 ar  
    25     9    37 1   
    26    10    28 ar  
    27    10    38 1   
    28    11    29 ar  
    29    11    39 1   
    30    12    25 ar  
    31    12    30 ar  
    32    12    40 1   
    33    13    14 1   
    34    13    18 1   
    35    13    21 2   
    36    14    19 1   
    37    15    16 ar  
    38    15    17 1   
    39    15    20 ar  
    40    17    18 1   
    41    17    26 2   
    42    18    41 1   
    43    20    23 1   
    44    21    42 1   
    45    22    24 1   
    46    22    43 1   
    47    23    44 1   
    48    24    45 1   
    49    24    46 1   
    50    29    30 ar  
    51    29    47 1   
    52    30    48 1   
@<TRIPOS>SUBSTRUCTURE
     1 IEN         1 TEMP              0 ****  ****    0 ROOT
