@<TRIPOS>MOLECULE
IEO
   37    39     1     0     0
SMALL
No Charge or Current Charge


@<TRIPOS>ATOM
      1 N01          4.1730     2.9460     0.0080 nt         1 IEO      -0.598000
      2 C01          3.9620     1.6190     0.1140 c          1 IEO       0.639700
      3 O01          4.9170     0.8920     0.3350 o          1 IEO      -0.652100
      4 C02          2.5460     1.1050    -0.0470 ca         1 IEO      -0.209600
      5 C03          1.4580     1.9780    -0.3070 ca         1 IEO      -0.013000
      6 C04          0.1440     1.4810    -0.4550 ca         1 IEO      -0.258000
      7 C05         -0.1200     0.0970    -0.3400 ca         1 IEO       0.240100
      8 O1          -1.3820    -0.4510    -0.4840 os         1 IEO      -0.329100
      9 C06         -2.5790     0.3540    -0.4650 c6         1 IEO       0.176300
     10 C07         -3.7770    -0.5130    -0.9190 c6         1 IEO      -0.092400
     11 C08         -5.0970     0.2860    -0.8360 c6         1 IEO       0.160300
     12 N02         -5.3090     0.8220     0.5280 n7         1 IEO      -0.860400
     13 C09         -4.1950     1.6830     0.9910 c6         1 IEO       0.160300
     14 C10         -2.8510     0.9200     0.9540 c6         1 IEO      -0.092400
     15 C11          0.9710    -0.7510    -0.0910 ca         1 IEO      -0.122800
     16 C12          1.0270    -2.1840     0.0690 cc         1 IEO      -0.039900
     17 C13          2.3600    -2.5000     0.3040 cd         1 IEO      -0.118100
     18 N03          3.1280    -1.3110     0.2950 na         1 IEO      -0.186700
     19 C14          2.2470    -0.2710     0.0520 ca         1 IEO       0.019800
     20 C1          -0.0390    -3.1290     0.0110 cg         1 IEO       0.333700
     21 N1          -0.8910    -3.9280    -0.0310 n1         1 IEO      -0.475000
     22 H011         5.1110     3.3020     0.1130 hn         1 IEO       0.316500
     23 H012         3.4050     3.5710    -0.1740 hn         1 IEO       0.316500
     24 H03          1.6130     3.0500    -0.4020 ha         1 IEO       0.101000
     25 H04         -0.6490     2.1910    -0.6640 ha         1 IEO       0.121000
     26 H06         -2.4720     1.1770    -1.1850 h1         1 IEO       0.041700
     27 H071        -3.6180    -0.8590    -1.9480 hc         1 IEO       0.065700
     28 H072        -3.8490    -1.4100    -0.2890 hc         1 IEO       0.065700
     29 H101        -2.8750     0.0990     1.6830 hc         1 IEO       0.065700
     30 H102        -2.0440     1.5940     1.2660 hc         1 IEO       0.065700
     31 H081        -5.0690     1.1180    -1.5570 h1         1 IEO       0.031700
     32 H082        -5.9400    -0.3650    -1.1110 h1         1 IEO       0.031700
     33 H02         -6.1800     1.3700     0.5390 hn         1 IEO       0.414000
     34 H091        -4.1290     2.5740     0.3480 h1         1 IEO       0.031700
     35 H092        -4.3970     2.0250     2.0160 h1         1 IEO       0.031700
     36 H13          2.8120    -3.4740     0.4770 h4         1 IEO       0.228000
     37 HA           4.1320    -1.2200     0.4370 hn         1 IEO       0.389000
@<TRIPOS>BOND
     1     1     2 1   
     2     1    22 1   
     3     1    23 1   
     4     2     3 2   
     5     2     4 1   
     6     4     5 ar  
     7     4    19 ar  
     8     5     6 ar  
     9     5    24 1   
    10     6     7 ar  
    11     6    25 1   
    12     7     8 1   
    13     7    15 ar  
    14     8     9 1   
    15     9    10 1   
    16     9    14 1   
    17     9    26 1   
    18    10    11 1   
    19    10    27 1   
    20    10    28 1   
    21    11    12 1   
    22    11    31 1   
    23    11    32 1   
    24    12    13 1   
    25    12    33 1   
    26    13    14 1   
    27    13    34 1   
    28    13    35 1   
    29    14    29 1   
    30    14    30 1   
    31    15    16 1   
    32    15    19 ar  
    33    16    17 2   
    34    16    20 1   
    35    17    18 1   
    36    17    36 1   
    37    18    19 1   
    38    18    37 1   
    39    20    21 3   
@<TRIPOS>SUBSTRUCTURE
     1 IEO         1 TEMP              0 ****  ****    0 ROOT
