@<TRIPOS>MOLECULE
IEO
   37    39     1     0     0
SMALL
abcg2


@<TRIPOS>ATOM
      1 N01          4.2200     2.8740    -0.1160 nt         1 IEO      -0.598000
      2 C01          3.9640     1.5600    -0.0650 c          1 IEO       0.639700
      3 O01          4.8690     0.7280    -0.0190 o          1 IEO      -0.652100
      4 C02          2.5460     1.1260    -0.0660 ca         1 IEO      -0.209600
      5 C03          1.4530     1.9740    -0.1400 ca         1 IEO      -0.013000
      6 C04          0.1300     1.5240    -0.1460 ca         1 IEO      -0.258000
      7 C05         -0.1560     0.1670    -0.0770 ca         1 IEO       0.240100
      8 O1          -1.3640    -0.3950    -0.0950 os         1 IEO      -0.329100
      9 C06         -2.5450     0.3940    -0.2530 c6         1 IEO       0.176300
     10 C07         -3.6110    -0.5110    -0.8470 c6         1 IEO      -0.092400
     11 C08         -4.9220     0.2550    -0.9710 c6         1 IEO       0.160300
     12 N02         -5.3270     0.7580     0.3290 n7         1 IEO      -0.860400
     13 C09         -4.3500     1.6820     0.8750 c6         1 IEO       0.160300
     14 C10         -3.0170     0.9700     1.0740 c6         1 IEO      -0.092400
     15 C11          0.9230    -0.7240     0.0080 ca         1 IEO      -0.122800
     16 C12          1.0020    -2.1530     0.0900 cc         1 IEO      -0.039900
     17 C13          2.3390    -2.4700     0.1370 cd         1 IEO      -0.118100
     18 N03          3.0610    -1.3340     0.0880 na         1 IEO      -0.186700
     19 C14          2.2390    -0.2450     0.0090 ca         1 IEO       0.019800
     20 C1          -0.0570    -3.0820     0.1220 cg         1 IEO       0.333700
     21 N1          -0.9110    -3.8580     0.1500 n1         1 IEO      -0.475000
     22 H011         5.1760     3.1900    -0.1240 hn         1 IEO       0.316500
     23 H012         3.5100     3.5830    -0.1560 hn         1 IEO       0.316500
     24 H03          1.5890     3.0460    -0.1980 ha         1 IEO       0.101000
     25 H04         -0.6560     2.2630    -0.2050 ha         1 IEO       0.121000
     26 H06         -2.3460     1.2080    -0.9630 h1         1 IEO       0.041700
     27 H071        -3.2970    -0.8680    -1.8300 hc         1 IEO       0.065700
     28 H072        -3.7520    -1.3840    -0.2040 hc         1 IEO       0.065700
     29 H101        -3.1430     0.1570     1.7950 hc         1 IEO       0.065700
     30 H102        -2.2890     1.6690     1.4920 hc         1 IEO       0.065700
     31 H081        -4.7930     1.0590    -1.7140 h1         1 IEO       0.031700
     32 H082        -5.6980    -0.4100    -1.3550 h1         1 IEO       0.031700
     33 H02         -6.2210     1.2230     0.2470 hn         1 IEO       0.414000
     34 H091        -4.1930     2.5630     0.2310 h1         1 IEO       0.031700
     35 H092        -4.7110     2.0550     1.8350 h1         1 IEO       0.031700
     36 H13          2.8120    -3.4360     0.2020 h4         1 IEO       0.228000
     37 HA           4.0680    -1.2700     0.0980 hn         1 IEO       0.389000
@<TRIPOS>BOND
     1     1     2 1   
     2     1    22 1   
     3     1    23 1   
     4     2     3 2   
     5     2     4 1   
     6     4     5 ar  
     7     4    19 ar  
     8     5     6 ar  
     9     5    24 1   
    10     6     7 ar  
    11     6    25 1   
    12     7     8 1   
    13     7    15 ar  
    14     8     9 1   
    15     9    10 1   
    16     9    14 1   
    17     9    26 1   
    18    10    11 1   
    19    10    27 1   
    20    10    28 1   
    21    11    12 1   
    22    11    31 1   
    23    11    32 1   
    24    12    13 1   
    25    12    33 1   
    26    13    14 1   
    27    13    34 1   
    28    13    35 1   
    29    14    29 1   
    30    14    30 1   
    31    15    16 1   
    32    15    19 ar  
    33    16    17 2   
    34    16    20 1   
    35    17    18 1   
    36    17    36 1   
    37    18    19 1   
    38    18    37 1   
    39    20    21 3   
@<TRIPOS>SUBSTRUCTURE
     1 IEO         1 TEMP              0 ****  ****    0 ROOT
