@<TRIPOS>MOLECULE
IEQ
   53    56     1     0     0
SMALL
abcg2


@<TRIPOS>ATOM
      1 O1         -29.2630    23.2200    21.7160 o          1 IEQ      -0.612100
      2 C1         -24.3610    22.5700    20.5200 c3         1 IEQ      -0.043800
      3 C10        -33.5300    22.0860    21.3260 cc         1 IEQ      -0.077000
      4 C11        -32.2210    22.3900    21.5810 cd         1 IEQ      -0.097000
      5 C12        -31.6970    22.1320    22.8610 cd         1 IEQ       0.001000
      6 C13        -26.3170    24.5130    23.8680 ca         1 IEQ      -0.084300
      7 C14        -26.9790    25.1860    25.0480 c3         1 IEQ      -0.016400
      8 C15        -26.5090    24.5450    26.3580 c3         1 IEQ      -0.085600
      9 C16        -26.7590    26.6960    25.0830 c3         1 IEQ      -0.085600
     10 C17        -25.0660    24.9270    23.4180 ca         1 IEQ      -0.103000
     11 C18        -24.4490    24.3090    22.3450 ca         1 IEQ       0.081100
     12 C19        -22.0900    24.2760    22.4210 ca         1 IEQ       0.139100
     13 C2         -25.0380    23.2390    21.6780 ca         1 IEQ      -0.068300
     14 C20        -20.9040    24.8150    21.9300 ca         1 IEQ      -0.164000
     15 C21        -19.6890    24.3490    22.4040 ca         1 IEQ      -0.079000
     16 C22        -19.6420    23.3460    23.3660 ca         1 IEQ      -0.147000
     17 C23        -20.8290    22.8150    23.8460 ca         1 IEQ      -0.079000
     18 C24        -22.0580    23.2720    23.3820 ca         1 IEQ      -0.164000
     19 C3         -26.2760    22.8140    22.1420 ca         1 IEQ      -0.098000
     20 C4         -26.9110    23.4280    23.2170 ca         1 IEQ      -0.024000
     21 C5         -29.2620    22.8480    22.8820 c          1 IEQ       0.668300
     22 C6         -30.4600    22.2940    23.5040 cc         1 IEQ      -0.410800
     23 C7         -30.7010    21.8020    24.8030 cc         1 IEQ       0.634900
     24 C8         -33.8290    21.2750    23.5600 cd         1 IEQ      -0.074000
     25 C9         -34.3480    21.5210    22.3270 cc         1 IEQ      -0.160000
     26 N1         -28.1520    22.9270    23.6660 ns         1 IEQ      -0.167000
     27 N2         -31.9320    21.3770    24.9830 nd         1 IEQ      -0.677100
     28 N3         -32.5330    21.5820    23.7980 na         1 IEQ       0.333400
     29 O2         -29.7960    21.7600    25.7730 oh         1 IEQ      -0.608600
     30 H2         -24.1470    23.2770    19.7180 hc         1 IEQ       0.048367
     31 H3         -23.4120    22.1160    20.8120 hc         1 IEQ       0.048367
     32 H1         -24.9910    21.7820    20.1110 hc         1 IEQ       0.048367
     33 H9         -33.9450    22.2800    20.3460 ha         1 IEQ       0.130000
     34 H10        -31.5820    22.8200    20.8270 ha         1 IEQ       0.167000
     35 H11        -28.0560    25.0220    24.9600 hc         1 IEQ       0.057700
     36 H13        -27.0150    25.0000    27.2120 hc         1 IEQ       0.035367
     37 H12        -26.7070    23.4730    26.3860 hc         1 IEQ       0.035367
     38 H14        -25.4350    24.6860    26.4890 hc         1 IEQ       0.035367
     39 H17        -27.3720    27.1390    25.8690 hc         1 IEQ       0.035367
     40 H15        -25.7220    26.9580    25.3000 hc         1 IEQ       0.035367
     41 H16        -27.0350    27.1660    24.1380 hc         1 IEQ       0.035367
     42 H18        -24.5600    25.7570    23.8960 ha         1 IEQ       0.129000
     43 H19        -20.9400    25.5960    21.1800 ha         1 IEQ       0.126500
     44 H20        -18.7720    24.7750    22.0180 ha         1 IEQ       0.111500
     45 H21        -18.6910    22.9850    23.7350 ha         1 IEQ       0.114000
     46 H22        -20.8110    22.0330    24.5950 ha         1 IEQ       0.111500
     47 H23        -22.9710    22.8420    23.7740 ha         1 IEQ       0.126500
     48 H4         -26.7500    21.9680    21.6610 ha         1 IEQ       0.129000
     49 H7         -34.3770    20.8450    24.3840 h4         1 IEQ       0.162000
     50 H8         -35.3820    21.2770    22.1320 ha         1 IEQ       0.138000
     51 H5         -28.2300    22.6810    24.6410 hn         1 IEQ       0.171000
     52 H6         -30.1760    21.3990    26.5850 ho         1 IEQ       0.493000
     53 O3         -23.2400    24.7920    21.9040 os         1 IEQ      -0.254200
@<TRIPOS>BOND
     1     1    21 2   
     2     2    13 1   
     3     2    30 1   
     4     2    31 1   
     5     2    32 1   
     6     3     4 2   
     7     3    25 1   
     8     3    33 1   
     9     4     5 1   
    10     4    34 1   
    11     5    22 2   
    12     5    28 1   
    13     6     7 1   
    14     6    10 ar  
    15     6    20 ar  
    16     7     8 1   
    17     7     9 1   
    18     7    35 1   
    19     8    36 1   
    20     8    37 1   
    21     8    38 1   
    22     9    39 1   
    23     9    40 1   
    24     9    41 1   
    25    10    11 ar  
    26    10    42 1   
    27    11    13 ar  
    28    11    53 1   
    29    12    14 ar  
    30    12    18 ar  
    31    12    53 1   
    32    13    19 ar  
    33    14    15 ar  
    34    14    43 1   
    35    15    16 ar  
    36    15    44 1   
    37    16    17 ar  
    38    16    45 1   
    39    17    18 ar  
    40    17    46 1   
    41    18    47 1   
    42    19    20 ar  
    43    19    48 1   
    44    20    26 1   
    45    21    22 1   
    46    21    26 1   
    47    22    23 1   
    48    23    27 2   
    49    23    29 1   
    50    24    25 2   
    51    24    28 1   
    52    24    49 1   
    53    25    50 1   
    54    26    51 1   
    55    27    28 1   
    56    29    52 1   
@<TRIPOS>SUBSTRUCTURE
     1 IEQ         1 TEMP              0 ****  ****    0 ROOT
