@<TRIPOS>MOLECULE
IEQ
   53    56     1     0     0
SMALL
No Charge or Current Charge


@<TRIPOS>ATOM
      1 O1         -29.5070    22.8100    21.2560 o          1 IEQ      -0.612100
      2 C1         -24.6600    22.8430    19.7940 c3         1 IEQ      -0.043800
      3 C10        -33.7470    21.5810    21.5310 cc         1 IEQ      -0.077000
      4 C11        -32.4240    21.9660    21.5710 cd         1 IEQ      -0.097000
      5 C12        -31.8950    22.1340    22.8860 cd         1 IEQ       0.001000
      6 C13        -26.1590    24.2410    23.6480 ca         1 IEQ      -0.084300
      7 C14        -26.6510    24.7380    25.0230 c3         1 IEQ      -0.016400
      8 C15        -26.2280    23.7560    26.1350 c3         1 IEQ      -0.085600
      9 C16        -26.2050    26.1850    25.3440 c3         1 IEQ      -0.085600
     10 C17        -24.8280    24.4980    23.2520 ca         1 IEQ      -0.103000
     11 C18        -24.3390    24.0490    22.0130 ca         1 IEQ       0.081100
     12 C19        -21.9740    24.1950    22.5050 ca         1 IEQ       0.139100
     13 C2         -25.1800    23.3370    21.1390 ca         1 IEQ      -0.068300
     14 C20        -20.8930    25.0830    22.3800 ca         1 IEQ      -0.164000
     15 C21        -19.7870    24.9750    23.2410 ca         1 IEQ      -0.079000
     16 C22        -19.7610    23.9720    24.2260 ca         1 IEQ      -0.147000
     17 C23        -20.8350    23.0730    24.3460 ca         1 IEQ      -0.079000
     18 C24        -21.9400    23.1810    23.4840 ca         1 IEQ      -0.164000
     19 C3         -26.5020    23.0610    21.5310 ca         1 IEQ      -0.098000
     20 C4         -27.0050    23.5050    22.7750 ca         1 IEQ      -0.024000
     21 C5         -29.4680    22.8320    22.4790 c          1 IEQ       0.668300
     22 C6         -30.6470    22.5010    23.3090 cc         1 IEQ      -0.410800
     23 C7         -30.7640    22.4810    24.7180 cc         1 IEQ       0.634900
     24 C8         -33.9580    21.5470    24.0270 cd         1 IEQ      -0.074000
     25 C9         -34.4970    21.3770    22.7510 cc         1 IEQ      -0.160000
     26 N1         -28.3310    23.1870    23.1880 ns         1 IEQ      -0.167000
     27 N2         -31.9290    22.1490    25.2200 nd         1 IEQ      -0.677100
     28 N3         -32.6180    21.9370    24.0470 na         1 IEQ       0.333400
     29 O2         -29.7760    22.7740    25.5430 oh         1 IEQ      -0.608600
     30 H2         -24.3090    23.6800    19.1780 hc         1 IEQ       0.048367
     31 H3         -23.8200    22.1510    19.9290 hc         1 IEQ       0.048367
     32 H1         -25.4340    22.3170    19.2230 hc         1 IEQ       0.048367
     33 H9         -34.2450    21.4250    20.5780 ha         1 IEQ       0.130000
     34 H10        -31.8450    22.1230    20.6680 ha         1 IEQ       0.167000
     35 H11        -27.7460    24.7780    25.0340 hc         1 IEQ       0.057700
     36 H13        -26.6220    24.0770    27.1070 hc         1 IEQ       0.035367
     37 H12        -26.6130    22.7510    25.9270 hc         1 IEQ       0.035367
     38 H14        -25.1350    23.6960    26.2080 hc         1 IEQ       0.035367
     39 H17        -26.7210    26.5530    26.2400 hc         1 IEQ       0.035367
     40 H15        -25.1280    26.2470    25.5360 hc         1 IEQ       0.035367
     41 H16        -26.4510    26.8580    24.5140 hc         1 IEQ       0.035367
     42 H18        -24.1590    25.0450    23.9080 ha         1 IEQ       0.129000
     43 H19        -20.9160    25.8570    21.6170 ha         1 IEQ       0.126500
     44 H20        -18.9530    25.6670    23.1460 ha         1 IEQ       0.111500
     45 H21        -18.9050    23.8880    24.8920 ha         1 IEQ       0.114000
     46 H22        -20.8090    22.2920    25.1040 ha         1 IEQ       0.111500
     47 H23        -22.7630    22.4760    23.5740 ha         1 IEQ       0.126500
     48 H4         -27.1250    22.4750    20.8630 ha         1 IEQ       0.129000
     49 H7         -34.4710    21.4080    24.9700 h4         1 IEQ       0.162000
     50 H8         -35.5350    21.0740    22.6540 ha         1 IEQ       0.138000
     51 H5         -28.4640    23.2080    24.1910 hn         1 IEQ       0.171000
     52 H6         -30.2070    22.6530    26.4120 ho         1 IEQ       0.493000
     53 O3         -23.0390    24.3170    21.6410 os         1 IEQ      -0.254200
@<TRIPOS>BOND
     1     1    21 2   
     2     2    13 1   
     3     2    30 1   
     4     2    31 1   
     5     2    32 1   
     6     3     4 2   
     7     3    25 1   
     8     3    33 1   
     9     4     5 1   
    10     4    34 1   
    11     5    22 2   
    12     5    28 1   
    13     6     7 1   
    14     6    10 ar  
    15     6    20 ar  
    16     7     8 1   
    17     7     9 1   
    18     7    35 1   
    19     8    36 1   
    20     8    37 1   
    21     8    38 1   
    22     9    39 1   
    23     9    40 1   
    24     9    41 1   
    25    10    11 ar  
    26    10    42 1   
    27    11    13 ar  
    28    11    53 1   
    29    12    14 ar  
    30    12    18 ar  
    31    12    53 1   
    32    13    19 ar  
    33    14    15 ar  
    34    14    43 1   
    35    15    16 ar  
    36    15    44 1   
    37    16    17 ar  
    38    16    45 1   
    39    17    18 ar  
    40    17    46 1   
    41    18    47 1   
    42    19    20 ar  
    43    19    48 1   
    44    20    26 1   
    45    21    22 1   
    46    21    26 1   
    47    22    23 1   
    48    23    27 2   
    49    23    29 1   
    50    24    25 2   
    51    24    28 1   
    52    24    49 1   
    53    25    50 1   
    54    26    51 1   
    55    27    28 1   
    56    29    52 1   
@<TRIPOS>SUBSTRUCTURE
     1 IEQ         1 TEMP              0 ****  ****    0 ROOT
