@<TRIPOS>MOLECULE
IER
   62    67     1     0     0
SMALL
abcg2


@<TRIPOS>ATOM
      1 C1          -6.4520   -43.6810    23.4630 cp         1 IER       0.460500
      2 C3          -5.4030   -44.6040    22.9750 cp         1 IER      -0.155500
      3 C4          -5.0700   -44.6270    21.6200 ca         1 IER      -0.078500
      4 C5          -4.0920   -45.4890    21.1490 ca         1 IER      -0.119500
      5 C6          -3.4210   -46.3320    22.0260 ca         1 IER      -0.097000
      6 C7          -3.7360   -46.3080    23.3770 ca         1 IER      -0.119500
      7 C8          -4.7210   -45.4520    23.8480 ca         1 IER      -0.078500
      8 C9          -7.7810   -40.5140    22.4970 ca         1 IER       0.221000
      9 C10         -9.3490   -40.9780    24.7320 ca         1 IER      -0.089000
     10 C11         -7.5830   -41.7160    23.2130 ca         1 IER       0.259000
     11 C12         -8.3910   -41.9370    24.3490 ca         1 IER      -0.086000
     12 C15         -5.8450   -35.2750    21.2940 cy         1 IER      -0.111400
     13 C16         -5.9510   -33.7680    21.6240 cy         1 IER       0.170000
     14 C17         -7.4830   -33.9420    21.7310 cy         1 IER      -0.111400
     15 C18         -9.9460   -37.6810    21.6300 cc         1 IER      -0.225000
     16 C19        -10.3600   -35.5660    20.5500 cc         1 IER      -0.226000
     17 C20        -11.6590   -35.9170    20.4910 cd         1 IER       0.358900
     18 C22        -11.3440   -37.9710    21.4700 cc         1 IER       0.670900
     19 C23         -8.6980   -39.5660    22.8670 ca         1 IER      -0.058800
     20 C24         -9.4880   -39.8240    24.0120 ca         1 IER      -0.098000
     21 C32         -7.2100   -44.0220    24.6080 ca         1 IER      -0.265000
     22 C31         -8.1770   -43.1570    25.0550 ca         1 IER       0.195100
     23 O01         -8.9580   -43.3620    26.1080 os         1 IER      -0.342100
     24 C03         -8.8090   -44.5590    26.8710 c3         1 IER       0.164600
     25 C35         -9.8300   -44.5290    27.9810 c3         1 IER      -0.096100
     26 N2          -6.6380   -42.5770    22.7840 nb         1 IER      -0.671000
     27 F13         -7.0370   -40.3230    21.4070 f          1 IER      -0.141000
     28 C25         -8.8170   -38.2990    22.1400 cd         1 IER       0.106400
     29 N26         -7.7390   -37.5070    21.9300 nd         1 IER      -0.538300
     30 N21        -12.1610   -37.1060    20.9280 nd         1 IER      -0.780000
     31 N30         -9.4930   -36.4780    21.1200 na         1 IER       0.092200
     32 C27         -8.1570   -36.4190    21.3210 cc         1 IER       0.364800
     33 C01         -7.3360   -35.2550    20.9220 cy         1 IER      -0.092000
     34 O29         -5.2670   -33.2960    22.7510 oh         1 IER      -0.639000
     35 H1          -5.5900   -43.9730    20.9320 ha         1 IER       0.122000
     36 H2          -3.8540   -45.5040    20.0930 ha         1 IER       0.114000
     37 H3          -2.6560   -47.0030    21.6570 ha         1 IER       0.113000
     38 H4          -3.2110   -46.9530    24.0700 ha         1 IER       0.114000
     39 H5          -4.9380   -45.4360    24.9080 ha         1 IER       0.122000
     40 H6          -9.9660   -41.1400    25.6040 ha         1 IER       0.133000
     41 H7          -5.6770   -35.8690    22.1950 hc         1 IER       0.066200
     42 H8          -5.1340   -35.5850    20.5280 hc         1 IER       0.066200
     43 H9          -8.1170   -33.1560    21.3180 hc         1 IER       0.066200
     44 H10         -7.7950   -34.1460    22.7580 hc         1 IER       0.066200
     45 H11         -9.9550   -34.6340    20.1880 h4         1 IER       0.155000
     46 H12        -12.3730   -35.2280    20.0590 h4         1 IER       0.029100
     47 H13        -10.2030   -39.0760    24.3270 ha         1 IER       0.129000
     48 H14         -7.0330   -44.9670    25.0990 ha         1 IER       0.130000
     49 H15         -8.9630   -45.4300    26.2270 h1         1 IER       0.040700
     50 H16         -7.7940   -44.6150    27.2750 h1         1 IER       0.040700
     51 H17         -9.7350   -45.4350    28.5790 hc         1 IER       0.050700
     52 H18         -9.6790   -43.6750    28.6400 hc         1 IER       0.050700
     53 H19        -10.8450   -44.4930    27.5870 hc         1 IER       0.050700
     54 H21        -12.7760   -39.3770    21.6280 hn         1 IER       0.491000
     55 H22        -11.2240   -39.9350    22.0440 hn         1 IER       0.491000
     56 H23         -7.4700   -35.0580    19.8540 hc         1 IER       0.068700
     57 H27         -5.4890   -33.8570    23.5010 ho         1 IER       0.446000
     58 N28        -11.8370   -39.1480    21.9100 nv         1 IER      -1.056900
     59 C02         -5.5530   -32.8870    20.4560 c3         1 IER      -0.075100
     60 H24         -5.8260   -31.8470    20.6420 hc         1 IER       0.044033
     61 H25         -4.4760   -32.9360    20.2810 hc         1 IER       0.044033
     62 H26         -6.0510   -33.2000    19.5380 hc         1 IER       0.044033
@<TRIPOS>BOND
     1     1     2 1   
     2     1    21 ar  
     3     1    26 ar  
     4     2     3 ar  
     5     2     7 ar  
     6     3     4 ar  
     7     3    35 1   
     8     4     5 ar  
     9     4    36 1   
    10     5     6 ar  
    11     5    37 1   
    12     6     7 ar  
    13     6    38 1   
    14     7    39 1   
    15     8    10 ar  
    16     8    19 ar  
    17     8    27 1   
    18     9    11 ar  
    19     9    20 ar  
    20     9    40 1   
    21    10    11 ar  
    22    10    26 ar  
    23    11    22 ar  
    24    12    13 1   
    25    12    33 1   
    26    12    41 1   
    27    12    42 1   
    28    13    14 1   
    29    13    34 1   
    30    13    59 1   
    31    14    33 1   
    32    14    43 1   
    33    14    44 1   
    34    15    18 1   
    35    15    28 2   
    36    15    31 1   
    37    16    17 2   
    38    16    31 1   
    39    16    45 1   
    40    17    30 1   
    41    17    46 1   
    42    18    30 2   
    43    18    58 1   
    44    19    20 ar  
    45    19    28 1   
    46    20    47 1   
    47    21    22 ar  
    48    21    48 1   
    49    22    23 1   
    50    23    24 1   
    51    24    25 1   
    52    24    49 1   
    53    24    50 1   
    54    25    51 1   
    55    25    52 1   
    56    25    53 1   
    57    28    29 1   
    58    29    32 2   
    59    31    32 1   
    60    32    33 1   
    61    33    56 1   
    62    34    57 1   
    63    54    58 1   
    64    55    58 1   
    65    59    60 1   
    66    59    61 1   
    67    59    62 1   
@<TRIPOS>SUBSTRUCTURE
     1 IER         1 TEMP              0 ****  ****    0 ROOT
