@<TRIPOS>MOLECULE
IER
   62    67     1     0     0
SMALL
No Charge or Current Charge


@<TRIPOS>ATOM
      1 C1          -6.3560   -43.7260    23.5480 cp         1 IER       0.460500
      2 C3          -5.1920   -44.5830    23.1190 cp         1 IER      -0.155500
      3 C4          -4.6370   -44.4750    21.8130 ca         1 IER      -0.078500
      4 C5          -3.5530   -45.2740    21.4100 ca         1 IER      -0.119500
      5 C6          -2.9910   -46.1990    22.3020 ca         1 IER      -0.097000
      6 C7          -3.5130   -46.3220    23.5990 ca         1 IER      -0.119500
      7 C8          -4.5980   -45.5250    24.0030 ca         1 IER      -0.078500
      8 C9          -7.7220   -40.4970    22.5090 ca         1 IER       0.221000
      9 C10         -9.5100   -41.1650    24.5580 ca         1 IER      -0.089000
     10 C11         -7.5490   -41.7240    23.2060 ca         1 IER       0.259000
     11 C12         -8.4630   -42.0520    24.2350 ca         1 IER      -0.086000
     12 C15         -5.7740   -35.3200    21.0780 cy         1 IER      -0.111400
     13 C16         -5.7750   -33.7550    21.1500 cy         1 IER       0.170000
     14 C17         -7.2160   -33.9110    21.7470 cy         1 IER      -0.111400
     15 C18        -10.0670   -37.5420    21.8980 cc         1 IER      -0.225000
     16 C19        -10.4590   -35.3330    21.1110 cc         1 IER      -0.226000
     17 C20        -11.8300   -35.6040    21.2360 cd         1 IER       0.358900
     18 C22        -11.4590   -37.7430    21.9410 cc         1 IER       0.670900
     19 C23         -8.7980   -39.6200    22.8000 ca         1 IER      -0.058800
     20 C24         -9.6650   -39.9610    23.8580 ca         1 IER      -0.098000
     21 C32         -7.2400   -44.1100    24.5760 ca         1 IER      -0.265000
     22 C31         -8.3050   -43.2670    24.9310 ca         1 IER       0.195100
     23 O01         -9.1980   -43.5970    25.9340 os         1 IER      -0.342100
     24 C03         -9.0970   -44.8160    26.6890 c3         1 IER       0.164600
     25 C35        -10.2490   -44.8260    27.7060 c3         1 IER      -0.096100
     26 N2          -6.5290   -42.5640    22.8860 nb         1 IER      -0.671000
     27 F13         -6.8640   -40.1990    21.4990 f          1 IER      -0.141000
     28 C25         -8.9380   -38.3100    22.1180 cd         1 IER       0.106400
     29 N26         -7.8110   -37.5460    21.7960 nd         1 IER      -0.538300
     30 N21        -12.3580   -36.8500    21.6390 nd         1 IER      -0.780000
     31 N30         -9.6060   -36.3730    21.4650 na         1 IER       0.092200
     32 C27         -8.2380   -36.3560    21.3730 cc         1 IER       0.364800
     33 C01         -7.3360   -35.2400    20.9200 cy         1 IER      -0.092000
     34 O29         -4.8390   -33.2340    22.0720 oh         1 IER      -0.639000
     35 H1          -5.0560   -43.7700    21.0980 ha         1 IER       0.122000
     36 H2          -3.1500   -45.1750    20.4050 ha         1 IER       0.114000
     37 H3          -2.1510   -46.8170    21.9900 ha         1 IER       0.113000
     38 H4          -3.0740   -47.0340    24.2940 ha         1 IER       0.114000
     39 H5          -4.9630   -45.6340    25.0210 ha         1 IER       0.122000
     40 H6         -10.2010   -41.3930    25.3670 ha         1 IER       0.133000
     41 H7          -5.4410   -35.8220    21.9950 hc         1 IER       0.066200
     42 H8          -5.2330   -35.7600    20.2340 hc         1 IER       0.066200
     43 H9          -7.9270   -33.1200    21.4860 hc         1 IER       0.066200
     44 H10         -7.2520   -34.0570    22.8330 hc         1 IER       0.066200
     45 H11        -10.0360   -34.3970    20.7760 h4         1 IER       0.155000
     46 H12        -12.5660   -34.8480    20.9910 h4         1 IER       0.029100
     47 H13        -10.4400   -39.2710    24.1810 ha         1 IER       0.129000
     48 H14         -7.0940   -45.0620    25.0700 ha         1 IER       0.130000
     49 H15         -9.1830   -45.6910    26.0310 h1         1 IER       0.040700
     50 H16         -8.1380   -44.8670    27.2220 h1         1 IER       0.040700
     51 H17        -10.2150   -45.7410    28.3080 hc         1 IER       0.050700
     52 H18        -10.1740   -43.9650    28.3810 hc         1 IER       0.050700
     53 H19        -11.2170   -44.7870    27.1920 hc         1 IER       0.050700
     54 H21        -12.9710   -38.9830    21.9050 hn         1 IER       0.491000
     55 H22        -11.4300   -39.7330    21.9870 hn         1 IER       0.491000
     56 H23         -7.6450   -35.0730    19.8820 hc         1 IER       0.068700
     57 H27         -4.9240   -33.7510    22.9020 ho         1 IER       0.446000
     58 N28        -12.0020   -38.9240    22.1890 nv         1 IER      -1.056900
     59 C02         -5.6310   -32.9780    19.8250 c3         1 IER      -0.075100
     60 H24         -5.8210   -31.9090    19.9750 hc         1 IER       0.044033
     61 H25         -4.6190   -33.0850    19.4170 hc         1 IER       0.044033
     62 H26         -6.3320   -33.3320    19.0610 hc         1 IER       0.044033
@<TRIPOS>BOND
     1     1     2 1   
     2     1    21 ar  
     3     1    26 ar  
     4     2     3 ar  
     5     2     7 ar  
     6     3     4 ar  
     7     3    35 1   
     8     4     5 ar  
     9     4    36 1   
    10     5     6 ar  
    11     5    37 1   
    12     6     7 ar  
    13     6    38 1   
    14     7    39 1   
    15     8    10 ar  
    16     8    19 ar  
    17     8    27 1   
    18     9    11 ar  
    19     9    20 ar  
    20     9    40 1   
    21    10    11 ar  
    22    10    26 ar  
    23    11    22 ar  
    24    12    13 1   
    25    12    33 1   
    26    12    41 1   
    27    12    42 1   
    28    13    14 1   
    29    13    34 1   
    30    13    59 1   
    31    14    33 1   
    32    14    43 1   
    33    14    44 1   
    34    15    18 1   
    35    15    28 2   
    36    15    31 1   
    37    16    17 2   
    38    16    31 1   
    39    16    45 1   
    40    17    30 1   
    41    17    46 1   
    42    18    30 2   
    43    18    58 1   
    44    19    20 ar  
    45    19    28 1   
    46    20    47 1   
    47    21    22 ar  
    48    21    48 1   
    49    22    23 1   
    50    23    24 1   
    51    24    25 1   
    52    24    49 1   
    53    24    50 1   
    54    25    51 1   
    55    25    52 1   
    56    25    53 1   
    57    28    29 1   
    58    29    32 2   
    59    31    32 1   
    60    32    33 1   
    61    33    56 1   
    62    34    57 1   
    63    54    58 1   
    64    55    58 1   
    65    59    60 1   
    66    59    61 1   
    67    59    62 1   
@<TRIPOS>SUBSTRUCTURE
     1 IER         1 TEMP              0 ****  ****    0 ROOT
