@<TRIPOS>MOLECULE
IES
   80    82     1     0     0
SMALL
No Charge or Current Charge


@<TRIPOS>ATOM
      1 C01         31.4490    46.3070    -1.7430 c3         1 IES      -0.101100
      2 C05         31.3000    47.3950    -2.8220 c3         1 IES       0.181300
      3 C07         31.2040    46.8050    -4.2470 c3         1 IES      -0.101100
      4 O11         30.0760    48.0920    -2.5310 os         1 IES      -0.474100
      5 C12         29.8770    49.3390    -3.0550 c          1 IES       0.640100
      6 O13         30.6730    49.9610    -3.7360 o          1 IES      -0.545000
      7 N14         28.6700    49.8560    -2.6670 ns         1 IES      -0.503900
      8 C16         27.6690    49.2080    -1.8040 c6         1 IES       0.185000
      9 C18         26.2920    49.8660    -2.0250 c6         1 IES      -0.127400
     10 C21         25.1760    49.1410    -1.2170 c6         1 IES       0.123700
     11 C23         23.9920    50.1160    -0.9780 c3         1 IES      -0.097100
     12 N27         25.6800    48.5510     0.0620 n          1 IES      -0.241400
     13 C28         25.0190    47.3960     0.5750 c          1 IES       0.602100
     14 C29         25.7260    46.4910     1.5900 c3         1 IES      -0.167100
     15 O33         23.9140    47.0630     0.1590 o          1 IES      -0.600100
     16 C34         26.9090    49.0980     0.5970 ca         1 IES      -0.014000
     17 C35         27.1520    49.1620     1.9830 ca         1 IES      -0.139000
     18 C37         28.4190    49.5110     2.4750 ca         1 IES      -0.081000
     19 C39         29.4960    49.7700     1.5970 cp         1 IES      -0.044000
     20 C40         29.2530    49.6660     0.2060 ca         1 IES      -0.066000
     21 C42         27.9800    49.3170    -0.2980 ca         1 IES      -0.120300
     22 C43         30.8520    50.1340     2.1200 cp         1 IES      -0.051000
     23 C44         31.6810    51.0540     1.4330 ca         1 IES      -0.079000
     24 C46         32.9540    51.3910     1.9230 ca         1 IES      -0.135000
     25 C48         33.4400    50.8240     3.1140 ca         1 IES      -0.028000
     26 N49         34.7400    51.2080     3.5450 ns         1 IES      -0.155000
     27 C51         35.4670    50.9250     4.6950 c          1 IES       0.602100
     28 O52         35.0440    50.2670     5.6390 o          1 IES      -0.582100
     29 C53         36.8710    51.5480     4.7210 c3         1 IES      -0.164400
     30 C56         37.9940    50.4960     4.5460 c3         1 IES      -0.066400
     31 C59         37.9750    49.7850     3.1690 c3         1 IES      -0.083400
     32 C62         39.0670    48.7030     2.9930 c3         1 IES      -0.101400
     33 C65         40.5160    49.2520     2.9760 c3         1 IES      -0.062400
     34 C68         41.5860    48.1740     2.6700 c3         1 IES      -0.144400
     35 C71         41.6530    47.0880     3.7520 c          1 IES       0.572100
     36 O72         42.1290    47.2830     4.8630 o          1 IES      -0.619100
     37 N73         41.1810    45.8380     3.3850 ns         1 IES      -0.370400
     38 O75         41.3770    44.7000     4.2560 oh         1 IES      -0.440100
     39 C77         32.6280    49.9010     3.8070 ca         1 IES      -0.135000
     40 C79         31.3540    49.5660     3.3160 ca         1 IES      -0.079000
     41 H011        31.4990    46.7620    -0.7460 hc         1 IES       0.048700
     42 H012        30.6010    45.6140    -1.7670 hc         1 IES       0.048700
     43 H013        32.3700    45.7330    -1.9020 hc         1 IES       0.048700
     44 H05         32.1660    48.0690    -2.7560 h1         1 IES       0.071700
     45 H071        31.1450    47.5980    -5.0010 hc         1 IES       0.048700
     46 H072        32.0900    46.1990    -4.4680 hc         1 IES       0.048700
     47 H073        30.3190    46.1660    -4.3450 hc         1 IES       0.048700
     48 H14         28.4720    50.7880    -3.0040 hn         1 IES       0.336500
     49 H16         27.6030    48.1440    -2.0790 h1         1 IES       0.095700
     50 H181        26.3540    50.9210    -1.7200 hc         1 IES       0.049200
     51 H182        26.0320    49.8650    -3.0930 hc         1 IES       0.049200
     52 H21         24.8100    48.3170    -1.8470 h1         1 IES       0.079700
     53 H231        23.1500    49.6110    -0.4890 hc         1 IES       0.048700
     54 H232        24.2910    50.9550    -0.3380 hc         1 IES       0.048700
     55 H233        23.6220    50.5290    -1.9240 hc         1 IES       0.048700
     56 H291        25.3300    45.4700     1.5630 hc         1 IES       0.065367
     57 H292        26.8120    46.5110     1.4450 hc         1 IES       0.065367
     58 H293        25.5690    46.8980     2.5930 hc         1 IES       0.065367
     59 H35         26.3480    48.9820     2.6900 ha         1 IES       0.121000
     60 H37         28.5630    49.5870     3.5500 ha         1 IES       0.118000
     61 H40         30.0790    49.8450    -0.4730 ha         1 IES       0.124000
     62 H44         31.3300    51.5240     0.5170 ha         1 IES       0.116000
     63 H79         30.7560    48.8410     3.8630 ha         1 IES       0.116000
     64 H46         33.5640    52.1040     1.3710 ha         1 IES       0.128000
     65 H49         35.2330    51.7900     2.8810 hn         1 IES       0.153000
     66 H77         32.9650    49.4250     4.7210 ha         1 IES       0.128000
     67 H531        36.9680    52.2960     3.9240 hc         1 IES       0.058700
     68 H532        37.0130    52.0350     5.6940 hc         1 IES       0.058700
     69 H561        38.9580    51.0010     4.6810 hc         1 IES       0.058700
     70 H562        37.9170    49.7460     5.3440 hc         1 IES       0.058700
     71 H591        36.9990    49.3040     3.0260 hc         1 IES       0.052700
     72 H592        38.0740    50.5310     2.3710 hc         1 IES       0.052700
     73 H621        38.9630    47.9580     3.7920 hc         1 IES       0.040200
     74 H622        38.8800    48.1770     2.0490 hc         1 IES       0.040200
     75 H651        40.5890    50.0430     2.2200 hc         1 IES       0.061200
     76 H652        40.7500    49.7170     3.9420 hc         1 IES       0.061200
     77 H681        41.3590    47.7250     1.6960 hc         1 IES       0.055700
     78 H682        42.5610    48.6730     2.6210 hc         1 IES       0.055700
     79 H73         40.9430    45.6400     2.4140 hn         1 IES       0.355500
     80 H75         42.0050    45.0550     4.9340 ho         1 IES       0.479000
@<TRIPOS>BOND
     1     1     2 1   
     2     1    41 1   
     3     1    42 1   
     4     1    43 1   
     5     2     3 1   
     6     2     4 1   
     7     2    44 1   
     8     3    45 1   
     9     3    46 1   
    10     3    47 1   
    11     4     5 1   
    12     5     6 2   
    13     5     7 1   
    14     7     8 1   
    15     7    48 1   
    16     8     9 1   
    17     8    21 1   
    18     8    49 1   
    19     9    10 1   
    20     9    50 1   
    21     9    51 1   
    22    10    11 1   
    23    10    12 1   
    24    10    52 1   
    25    11    53 1   
    26    11    54 1   
    27    11    55 1   
    28    12    13 1   
    29    12    16 1   
    30    13    14 1   
    31    13    15 2   
    32    14    56 1   
    33    14    57 1   
    34    14    58 1   
    35    16    17 ar  
    36    16    21 ar  
    37    17    18 ar  
    38    17    59 1   
    39    18    19 ar  
    40    18    60 1   
    41    19    20 ar  
    42    19    22 1   
    43    20    21 ar  
    44    20    61 1   
    45    22    23 ar  
    46    22    40 ar  
    47    23    24 ar  
    48    23    62 1   
    49    24    25 ar  
    50    24    64 1   
    51    25    26 1   
    52    25    39 ar  
    53    26    27 1   
    54    26    65 1   
    55    27    28 2   
    56    27    29 1   
    57    29    30 1   
    58    29    67 1   
    59    29    68 1   
    60    30    31 1   
    61    30    69 1   
    62    30    70 1   
    63    31    32 1   
    64    31    71 1   
    65    31    72 1   
    66    32    33 1   
    67    32    73 1   
    68    32    74 1   
    69    33    34 1   
    70    33    75 1   
    71    33    76 1   
    72    34    35 1   
    73    34    77 1   
    74    34    78 1   
    75    35    36 2   
    76    35    37 1   
    77    37    38 1   
    78    37    79 1   
    79    38    80 1   
    80    39    40 ar  
    81    39    66 1   
    82    40    63 1   
@<TRIPOS>SUBSTRUCTURE
     1 IES         1 TEMP              0 ****  ****    0 ROOT
