@<TRIPOS>MOLECULE
IES
   80    82     1     0     0
SMALL
abcg2


@<TRIPOS>ATOM
      1 C01         31.8480    47.1910    -2.7390 c3         1 IES      -0.101100
      2 C05         31.0470    47.9820    -3.7520 c3         1 IES       0.181300
      3 C07         30.5870    47.2020    -4.9680 c3         1 IES      -0.101100
      4 O11         29.8480    48.4430    -3.0230 os         1 IES      -0.474100
      5 C12         29.4180    49.7050    -3.2680 c          1 IES       0.640100
      6 O13         29.9690    50.4810    -4.0350 o          1 IES      -0.545000
      7 N14         28.4420    50.0550    -2.4010 ns         1 IES      -0.503900
      8 C16         27.6830    49.1430    -1.5720 c6         1 IES       0.185000
      9 C18         26.2180    49.6840    -1.5320 c6         1 IES      -0.127400
     10 C21         25.2550    48.9050    -0.6070 c6         1 IES       0.123700
     11 C23         24.2470    49.8360     0.0390 c3         1 IES      -0.097100
     12 N27         26.0100    48.1080     0.3890 n          1 IES      -0.241400
     13 C28         25.4430    46.9040     0.7340 c          1 IES       0.602100
     14 C29         26.1580    45.9510     1.6660 c3         1 IES      -0.167100
     15 O33         24.3480    46.5800     0.2710 o          1 IES      -0.600100
     16 C34         27.2660    48.6010     0.8330 ca         1 IES      -0.014000
     17 C35         27.7110    48.5040     2.1510 ca         1 IES      -0.139000
     18 C37         28.9260    49.0720     2.5220 ca         1 IES      -0.081000
     19 C39         29.8200    49.5680     1.5700 cp         1 IES      -0.044000
     20 C40         29.3860    49.5800     0.2360 ca         1 IES      -0.066000
     21 C42         28.1360    49.1260    -0.1350 ca         1 IES      -0.120300
     22 C43         31.1390    50.1020     1.9560 cp         1 IES      -0.051000
     23 C44         31.7420    51.1230     1.2060 ca         1 IES      -0.079000
     24 C46         32.9820    51.6230     1.5710 ca         1 IES      -0.135000
     25 C48         33.7140    51.0460     2.6100 ca         1 IES      -0.028000
     26 N49         35.0120    51.5450     2.8740 ns         1 IES      -0.155000
     27 C51         35.6480    51.5680     4.0770 c          1 IES       0.602100
     28 O52         35.1540    51.1710     5.1330 o          1 IES      -0.582100
     29 C53         37.0940    52.0360     4.0080 c3         1 IES      -0.164400
     30 C56         38.0990    50.8710     4.0800 c3         1 IES      -0.066400
     31 C59         38.0720    49.9850     2.8230 c3         1 IES      -0.083400
     32 C62         38.8470    48.6490     3.0940 c3         1 IES      -0.101400
     33 C65         40.3350    48.8370     3.3810 c3         1 IES      -0.062400
     34 C68         41.0550    47.5080     3.5020 c3         1 IES      -0.144400
     35 C71         40.7120    46.7020     4.7280 c          1 IES       0.572100
     36 O72         40.7200    47.1800     5.8710 o          1 IES      -0.619100
     37 N73         40.5130    45.3900     4.5370 ns         1 IES      -0.370400
     38 O75         40.1150    44.6110     5.6080 oh         1 IES      -0.440100
     39 C77         33.1480    50.0050     3.3470 ca         1 IES      -0.135000
     40 C79         31.8850    49.5460     2.9990 ca         1 IES      -0.079000
     41 H011        32.1990    47.8380    -1.9340 hc         1 IES       0.048700
     42 H012        31.2990    46.3160    -2.4010 hc         1 IES       0.048700
     43 H013        32.7460    46.8500    -3.2700 hc         1 IES       0.048700
     44 H05         31.5970    48.8690    -4.0670 h1         1 IES       0.071700
     45 H071        30.0610    47.8420    -5.6730 hc         1 IES       0.048700
     46 H072        31.4800    46.8420    -5.4990 hc         1 IES       0.048700
     47 H073        30.0300    46.3160    -4.6490 hc         1 IES       0.048700
     48 H14         28.1960    51.0320    -2.3610 hn         1 IES       0.336500
     49 H16         27.5910    48.1420    -1.9840 h1         1 IES       0.095700
     50 H181        26.2570    50.7480    -1.2740 hc         1 IES       0.049200
     51 H182        25.8400    49.6850    -2.5590 hc         1 IES       0.049200
     52 H21         24.7980    48.2000    -1.2960 h1         1 IES       0.079700
     53 H231        23.6150    49.2450     0.7080 hc         1 IES       0.048700
     54 H232        24.7650    50.5770     0.6550 hc         1 IES       0.048700
     55 H233        23.6150    50.3010    -0.7130 hc         1 IES       0.048700
     56 H291        25.5610    45.0560     1.8050 hc         1 IES       0.065367
     57 H292        27.0930    45.6440     1.1700 hc         1 IES       0.065367
     58 H293        26.4300    46.4000     2.6110 hc         1 IES       0.065367
     59 H35         27.0330    48.2010     2.9320 ha         1 IES       0.121000
     60 H37         29.2610    48.9140     3.5430 ha         1 IES       0.118000
     61 H40         30.0400    50.0470    -0.4890 ha         1 IES       0.124000
     62 H44         31.1950    51.6550     0.4400 ha         1 IES       0.116000
     63 H79         31.4850    48.6830     3.5190 ha         1 IES       0.116000
     64 H46         33.4250    52.4470     1.0210 ha         1 IES       0.128000
     65 H49         35.4670    51.9960     2.0960 hn         1 IES       0.153000
     66 H77         33.6760    49.5360     4.1610 ha         1 IES       0.128000
     67 H531        37.2820    52.6490     3.1200 hc         1 IES       0.058700
     68 H532        37.2600    52.7270     4.8450 hc         1 IES       0.058700
     69 H561        39.0650    51.3880     4.0820 hc         1 IES       0.058700
     70 H562        37.9580    50.3170     5.0060 hc         1 IES       0.058700
     71 H591        37.0480    49.6880     2.6180 hc         1 IES       0.052700
     72 H592        38.6540    50.4390     2.0200 hc         1 IES       0.052700
     73 H621        38.3310    48.1290     3.9110 hc         1 IES       0.040200
     74 H622        38.7160    48.0480     2.1860 hc         1 IES       0.040200
     75 H651        40.7430    49.4390     2.5690 hc         1 IES       0.061200
     76 H652        40.4110    49.3410     4.3480 hc         1 IES       0.061200
     77 H681        40.8300    46.9010     2.6050 hc         1 IES       0.055700
     78 H682        42.1450    47.6010     3.4290 hc         1 IES       0.055700
     79 H73         40.4010    44.9950     3.6160 hn         1 IES       0.355500
     80 H75         40.1310    45.2310     6.3640 ho         1 IES       0.479000
@<TRIPOS>BOND
     1     1     2 1   
     2     1    41 1   
     3     1    42 1   
     4     1    43 1   
     5     2     3 1   
     6     2     4 1   
     7     2    44 1   
     8     3    45 1   
     9     3    46 1   
    10     3    47 1   
    11     4     5 1   
    12     5     6 2   
    13     5     7 1   
    14     7     8 1   
    15     7    48 1   
    16     8     9 1   
    17     8    21 1   
    18     8    49 1   
    19     9    10 1   
    20     9    50 1   
    21     9    51 1   
    22    10    11 1   
    23    10    12 1   
    24    10    52 1   
    25    11    53 1   
    26    11    54 1   
    27    11    55 1   
    28    12    13 1   
    29    12    16 1   
    30    13    14 1   
    31    13    15 2   
    32    14    56 1   
    33    14    57 1   
    34    14    58 1   
    35    16    17 ar  
    36    16    21 ar  
    37    17    18 ar  
    38    17    59 1   
    39    18    19 ar  
    40    18    60 1   
    41    19    20 ar  
    42    19    22 1   
    43    20    21 ar  
    44    20    61 1   
    45    22    23 ar  
    46    22    40 ar  
    47    23    24 ar  
    48    23    62 1   
    49    24    25 ar  
    50    24    64 1   
    51    25    26 1   
    52    25    39 ar  
    53    26    27 1   
    54    26    65 1   
    55    27    28 2   
    56    27    29 1   
    57    29    30 1   
    58    29    67 1   
    59    29    68 1   
    60    30    31 1   
    61    30    69 1   
    62    30    70 1   
    63    31    32 1   
    64    31    71 1   
    65    31    72 1   
    66    32    33 1   
    67    32    73 1   
    68    32    74 1   
    69    33    34 1   
    70    33    75 1   
    71    33    76 1   
    72    34    35 1   
    73    34    77 1   
    74    34    78 1   
    75    35    36 2   
    76    35    37 1   
    77    37    38 1   
    78    37    79 1   
    79    38    80 1   
    80    39    40 ar  
    81    39    66 1   
    82    40    63 1   
@<TRIPOS>SUBSTRUCTURE
     1 IES         1 TEMP              0 ****  ****    0 ROOT
