@<TRIPOS>MOLECULE
IET
   35    36     1     0     0
SMALL
No Charge or Current Charge


@<TRIPOS>ATOM
      1 C1           0.0970    -0.3950     3.4360 ca         1 IET      -0.046300
      2 C7           0.5150    -0.3440     1.9560 c3         1 IET      -0.071400
      3 C2           1.0540    -0.5400     4.4720 ca         1 IET       0.140000
      4 Cl2          2.7830    -0.6620     4.1340 cl         1 IET      -0.199500
      5 C3           0.6480    -0.5830     5.8170 ca         1 IET      -0.102500
      6 C4          -0.7100    -0.4750     6.1530 ca         1 IET      -0.091000
      7 C5          -1.6660    -0.3190     5.1390 ca         1 IET      -0.102500
      8 C6          -1.2700    -0.2760     3.7910 ca         1 IET       0.140000
      9 Cl6         -2.5230    -0.0560     2.5660 cl         1 IET      -0.199500
     10 C8           0.6270     1.0680     1.3990 c2         1 IET       0.508900
     11 N1           0.2460     1.2580     0.0740 ns         1 IET      -0.439400
     12 C9           0.5330     0.4920    -1.0230 cs         1 IET       0.471400
     13 N5          -0.1630     0.9300    -2.1200 ns         1 IET      -0.370100
     14 S2           1.5910    -0.8050    -1.0270 s          1 IET      -0.563400
     15 N3           0.8720     2.0880     2.1310 n2         1 IET      -0.773100
     16 C11         -0.1410     0.5700    -3.4900 ca         1 IET       0.081600
     17 C12         -1.3190     0.7330    -4.2410 ca         1 IET      -0.124500
     18 C13         -1.3470     0.4060    -5.6090 ca         1 IET      -0.053000
     19 C14         -0.1870    -0.0770    -6.2430 ca         1 IET      -0.025000
     20 C15          1.0000    -0.2220    -5.5010 ca         1 IET      -0.053000
     21 C16          1.0230     0.1050    -4.1330 ca         1 IET      -0.124500
     22 C17         -0.2120    -0.4090    -7.6410 cg         1 IET       0.323000
     23 N6          -0.2360    -0.6710    -8.7790 n1         1 IET      -0.446000
     24 H71          1.4710    -0.8550     1.8110 hc         1 IET       0.101200
     25 H72         -0.1940    -0.9250     1.3580 hc         1 IET       0.101200
     26 H3           1.3920    -0.6960     6.6020 ha         1 IET       0.133000
     27 H4          -1.0190    -0.5080     7.1960 ha         1 IET       0.123000
     28 H5          -2.7180    -0.2270     5.3960 ha         1 IET       0.133000
     29 HN1         -0.3380     2.0660    -0.0890 hn         1 IET       0.301500
     30 HN5         -0.8250     1.6690    -1.9240 hn         1 IET       0.314500
     31 HN3          0.8500     2.9380     1.5520 hn         1 IET       0.382400
     32 H12         -2.2230     1.1040    -3.7640 ha         1 IET       0.134000
     33 H13         -2.2700     0.5300    -6.1730 ha         1 IET       0.131500
     34 H15          1.9070    -0.5810    -5.9830 ha         1 IET       0.131500
     35 H16          1.9590     0.0130    -3.5910 ha         1 IET       0.134000
@<TRIPOS>BOND
     1     1     2 1   
     2     1     3 ar  
     3     1     8 ar  
     4     2    10 1   
     5     2    24 1   
     6     2    25 1   
     7     3     4 1   
     8     3     5 ar  
     9     5     6 ar  
    10     5    26 1   
    11     6     7 ar  
    12     6    27 1   
    13     7     8 ar  
    14     7    28 1   
    15     8     9 1   
    16    10    11 1   
    17    10    15 2   
    18    11    12 1   
    19    11    29 1   
    20    12    13 1   
    21    12    14 2   
    22    13    16 1   
    23    13    30 1   
    24    15    31 1   
    25    16    17 ar  
    26    16    21 ar  
    27    17    18 ar  
    28    17    32 1   
    29    18    19 ar  
    30    18    33 1   
    31    19    20 ar  
    32    19    22 1   
    33    20    21 ar  
    34    20    34 1   
    35    21    35 1   
    36    22    23 3   
@<TRIPOS>SUBSTRUCTURE
     1 IET         1 TEMP              0 ****  ****    0 ROOT
