@<TRIPOS>MOLECULE
IET
   35    36     1     0     0
SMALL
abcg2


@<TRIPOS>ATOM
      1 C1           0.0700    -0.3800     3.3750 ca         1 IET      -0.046300
      2 C7           0.3820    -0.3580     1.9100 c3         1 IET      -0.071400
      3 C2           1.0400    -0.5820     4.3550 ca         1 IET       0.140000
      4 CL2          2.7050    -0.7480     3.9000 cl         1 IET      -0.199500
      5 C3           0.7340    -0.6470     5.7060 ca         1 IET      -0.102500
      6 C4          -0.5810    -0.4940     6.1110 ca         1 IET      -0.091000
      7 C5          -1.5770    -0.2690     5.1740 ca         1 IET      -0.102500
      8 C6          -1.2370    -0.2120     3.8330 ca         1 IET       0.140000
      9 CL6         -2.4970     0.1050     2.6840 cl         1 IET      -0.199500
     10 C8           0.4670     1.0550     1.3910 c2         1 IET       0.508900
     11 N1           0.2180     1.2930     0.0330 ns         1 IET      -0.439400
     12 C9           0.3770     0.4980    -1.0600 cs         1 IET       0.471400
     13 N5          -0.2120     1.0410    -2.1540 ns         1 IET      -0.370100
     14 S2           1.1990    -0.9440    -1.0730 s          1 IET      -0.563400
     15 N3           0.6790     2.0070     2.1950 n2         1 IET      -0.773100
     16 C11         -0.1420     0.6070    -3.4810 ca         1 IET       0.081600
     17 C12         -1.3090     0.6730    -4.2410 ca         1 IET      -0.124500
     18 C13         -1.2960     0.3200    -5.5760 ca         1 IET      -0.053000
     19 C14         -0.1080    -0.1110    -6.1630 ca         1 IET      -0.025000
     20 C15          1.0640    -0.1690    -5.4070 ca         1 IET      -0.053000
     21 C16          1.0500     0.1940    -4.0750 ca         1 IET      -0.124500
     22 C17         -0.0870    -0.4790    -7.5400 cg         1 IET       0.323000
     23 N6          -0.0680    -0.7730    -8.6540 n1         1 IET      -0.446000
     24 H71          1.3220    -0.8670     1.7040 hc         1 IET       0.101200
     25 H72         -0.3740    -0.9150     1.3580 hc         1 IET       0.101200
     26 H3           1.5160    -0.8090     6.4340 ha         1 IET       0.133000
     27 H4          -0.8300    -0.5450     7.1620 ha         1 IET       0.123000
     28 H5          -2.6050    -0.1380     5.4820 ha         1 IET       0.133000
     29 HN1         -0.0410     2.2520    -0.1590 hn         1 IET       0.301500
     30 HN5         -0.8940     1.7690    -1.9880 hn         1 IET       0.314500
     31 HN3          0.7230     2.9090     1.7280 hn         1 IET       0.382400
     32 H12         -2.2340     0.9990    -3.7830 ha         1 IET       0.134000
     33 H13         -2.2060     0.3720    -6.1570 ha         1 IET       0.131500
     34 H15          1.9910    -0.4820    -5.8660 ha         1 IET       0.131500
     35 H16          1.9680     0.1720    -3.5080 ha         1 IET       0.134000
@<TRIPOS>BOND
     1     1     2 1   
     2     1     3 ar  
     3     1     8 ar  
     4     2    10 1   
     5     2    24 1   
     6     2    25 1   
     7     3     4 1   
     8     3     5 ar  
     9     5     6 ar  
    10     5    26 1   
    11     6     7 ar  
    12     6    27 1   
    13     7     8 ar  
    14     7    28 1   
    15     8     9 1   
    16    10    11 1   
    17    10    15 2   
    18    11    12 1   
    19    11    29 1   
    20    12    13 1   
    21    12    14 2   
    22    13    16 1   
    23    13    30 1   
    24    15    31 1   
    25    16    17 ar  
    26    16    21 ar  
    27    17    18 ar  
    28    17    32 1   
    29    18    19 ar  
    30    18    33 1   
    31    19    20 ar  
    32    19    22 1   
    33    20    21 ar  
    34    20    34 1   
    35    21    35 1   
    36    22    23 3   
@<TRIPOS>SUBSTRUCTURE
     1 IET         1 TEMP              0 ****  ****    0 ROOT
