@<TRIPOS>MOLECULE
IEU
   55    59     1     0     0
SMALL
bcc


@<TRIPOS>ATOM
      1 O12         93.3990   -10.4060    12.5040 os         1 IEU      -0.415100
      2 C13         93.4970    -5.7200    12.7910 c6         1 IEU       0.170800
      3 C16         91.9390    -3.8830    14.2660 c6         1 IEU       0.121400
      4 C17         91.4780    -5.3060    14.0290 c6         1 IEU       0.170800
      5 C18         93.2580   -11.8180    12.6100 c3         1 IEU       0.120100
      6 C19         93.9910   -12.4110    11.4490 c2         1 IEU       0.584200
      7 C21         95.7210   -12.8370    10.0620 c5         1 IEU       0.171800
      8 C22         94.4000   -13.4600     9.5580 c5         1 IEU       0.148800
      9 C24         94.1100   -13.1460     8.1140 ca         1 IEU      -0.072300
     10 C25         93.6620   -11.8810     7.7370 ca         1 IEU      -0.113000
     11 C26         93.4300   -11.5840     6.4020 ca         1 IEU      -0.131500
     12 C27         93.6460   -12.5460     5.4230 ca         1 IEU      -0.126000
     13 C28         94.0900   -13.8080     5.7900 ca         1 IEU      -0.131500
     14 C1          90.9660    -9.1560    17.6910 ca         1 IEU      -0.084000
     15 C2          91.2370    -7.7800    17.6350 ca         1 IEU      -0.004600
     16 C3          91.7600    -7.2030    16.5090 ca         1 IEU      -0.067000
     17 C4          91.2780    -9.9510    16.6200 ca         1 IEU      -0.186300
     18 C5          91.8520    -9.3980    15.4580 ca         1 IEU       0.476600
     19 C6          92.0230    -8.0020    15.3820 ca         1 IEU      -0.314600
     20 C7          92.5640    -7.5090    14.1380 ca         1 IEU       0.752200
     21 N8          93.0350    -8.3490    13.2470 nb         1 IEU      -0.801000
     22 C9          92.8770    -9.6590    13.4750 ca         1 IEU       0.926300
     23 N10         92.2660   -10.2290    14.4690 nb         1 IEU      -0.810000
     24 N11         92.6440    -6.1780    13.8770 nh         1 IEU      -0.771300
     25 C14         93.8940    -4.2800    13.0680 c6         1 IEU       0.121400
     26 O15         92.7750    -3.4380    13.2230 os         1 IEU      -0.396600
     27 N20         95.3540   -12.4430    11.4100 nh         1 IEU      -0.768600
     28 N23         93.3750   -12.9540    10.4700 n2         1 IEU      -0.613900
     29 C29         94.3170   -14.1040     7.1280 ca         1 IEU      -0.113000
     30 C30         96.2320   -11.5840    12.1630 c3         1 IEU       0.213100
     31 H35         94.3940    -6.3340    12.7420 h1         1 IEU       0.063700
     32 H36         92.9830    -5.7990    11.8260 h1         1 IEU       0.063700
     33 H39         92.4580    -3.8230    15.2340 h1         1 IEU       0.055950
     34 H40         91.0760    -3.2170    14.3010 h1         1 IEU       0.055950
     35 H42         90.8810    -5.3530    13.1100 h1         1 IEU       0.063700
     36 H41         90.8360    -5.6310    14.8420 h1         1 IEU       0.063700
     37 H43         93.6660   -12.1840    13.5560 h1         1 IEU       0.077200
     38 H44         92.2090   -12.1110    12.5550 h1         1 IEU       0.077200
     39 H1          96.0160   -11.9610     9.4700 h1         1 IEU       0.053200
     40 H45         96.5540   -13.5410    10.0590 h1         1 IEU       0.053200
     41 H2          94.4470   -14.5500     9.6660 h1         1 IEU       0.073700
     42 H46         93.4890   -11.1240     8.4930 ha         1 IEU       0.133500
     43 H47         93.0790   -10.5980     6.1240 ha         1 IEU       0.129500
     44 H48         93.4650   -12.3130     4.3810 ha         1 IEU       0.129000
     45 H49         94.2560   -14.5670     5.0350 ha         1 IEU       0.129500
     46 H32         90.5380    -9.5880    18.5850 ha         1 IEU       0.151000
     47 H33         91.9980    -6.1480    16.5080 ha         1 IEU       0.153000
     48 H34         91.1150   -11.0200    16.6630 ha         1 IEU       0.157000
     49 H37         94.5250    -4.2510    13.9670 h1         1 IEU       0.055950
     50 H38         94.4790    -3.8950    12.2320 h1         1 IEU       0.055950
     51 H50         94.6580   -15.0940     7.4090 ha         1 IEU       0.133500
     52 H51         97.2230   -12.0350    12.2040 h1         1 IEU       0.039367
     53 H52         96.3310   -10.5880    11.7200 h1         1 IEU       0.039367
     54 H53         95.8840   -11.4760    13.1880 h1         1 IEU       0.039367
     55 CL31        90.9280    -6.8100    19.0350 cl         1 IEU      -0.105400
@<TRIPOS>BOND
     1     1     5 1   
     2     1    22 1   
     3     2    24 1   
     4     2    25 1   
     5     2    31 1   
     6     2    32 1   
     7     3     4 1   
     8     3    26 1   
     9     3    33 1   
    10     3    34 1   
    11     4    24 1   
    12     4    35 1   
    13     4    36 1   
    14     5     6 1   
    15     5    37 1   
    16     5    38 1   
    17     6    27 1   
    18     6    28 2   
    19     7     8 1   
    20     7    27 1   
    21     7    39 1   
    22     7    40 1   
    23     8     9 1   
    24     8    28 1   
    25     8    41 1   
    26     9    10 ar  
    27     9    29 ar  
    28    10    11 ar  
    29    10    42 1   
    30    11    12 ar  
    31    11    43 1   
    32    12    13 ar  
    33    12    44 1   
    34    13    29 ar  
    35    13    45 1   
    36    14    15 ar  
    37    14    17 ar  
    38    14    46 1   
    39    15    16 ar  
    40    15    55 1   
    41    16    19 ar  
    42    16    47 1   
    43    17    18 ar  
    44    17    48 1   
    45    18    19 ar  
    46    18    23 ar  
    47    19    20 ar  
    48    20    21 ar  
    49    20    24 1   
    50    21    22 ar  
    51    22    23 ar  
    52    25    26 1   
    53    25    49 1   
    54    25    50 1   
    55    27    30 1   
    56    29    51 1   
    57    30    52 1   
    58    30    53 1   
    59    30    54 1   
@<TRIPOS>SUBSTRUCTURE
     1 IEU         1 TEMP              0 ****  ****    0 ROOT
