@<TRIPOS>MOLECULE
IEU
   55    59     1     0     0
SMALL
No Charge or Current Charge


@<TRIPOS>ATOM
      1 O12         93.4510   -10.4040    12.5320 os         1 IEU      -0.438300
      2 C13         93.9100    -5.5190    13.3710 c6         1 IEU       0.170800
      3 C16         91.6230    -3.7890    13.8540 c6         1 IEU       0.144600
      4 C17         91.4380    -5.3280    13.6970 c6         1 IEU       0.170800
      5 C18         93.4190   -11.8540    12.6330 c3         1 IEU       0.143300
      6 C19         94.0470   -12.4950    11.3910 c2         1 IEU       0.584200
      7 C21         95.7130   -12.9080     9.8260 c5         1 IEU       0.171800
      8 C22         94.3590   -13.6010     9.4790 c5         1 IEU       0.148800
      9 C24         94.0420   -13.2500     8.0220 ca         1 IEU      -0.072300
     10 C25         93.6350   -11.9490     7.6550 ca         1 IEU      -0.095000
     11 C26         93.3530   -11.6390     6.3130 ca         1 IEU      -0.113500
     12 C27         93.4730   -12.6270     5.3230 ca         1 IEU      -0.108000
     13 C28         93.8750   -13.9250     5.6770 ca         1 IEU      -0.113500
     14 C1          90.9370    -9.1100    17.8200 ca         1 IEU      -0.066000
     15 C2          91.0220    -7.7160    17.6930 ca         1 IEU       0.087000
     16 C3          91.5710    -7.1470    16.5330 ca         1 IEU      -0.049000
     17 C4          91.4110    -9.9380    16.7870 ca         1 IEU      -0.103000
     18 C5          91.9650    -9.3830    15.6190 ca         1 IEU       0.083000
     19 C6          92.0350    -7.9780    15.4880 ca         1 IEU      -0.184000
     20 C7          92.5950    -7.4650    14.2970 ca         1 IEU       0.423900
     21 N8          93.0630    -8.2780    13.3350 nb         1 IEU      -0.275000
     22 C9          92.9630    -9.6020    13.5390 ca         1 IEU       0.400300
     23 N10         92.4300   -10.1800    14.6390 nb         1 IEU      -0.284000
     24 N11         92.6890    -6.0790    14.0400 nh         1 IEU      -0.771300
     25 C14         94.0040    -3.9730    13.5380 c6         1 IEU       0.144600
     26 O15         92.7780    -3.3350    13.1080 os         1 IEU      -0.443000
     27 N20         95.4180   -12.4850    11.2010 nh         1 IEU      -0.768600
     28 N23         93.3650   -13.0900    10.4740 n2         1 IEU      -0.613900
     29 C29         94.1580   -14.2340     7.0190 ca         1 IEU      -0.095000
     30 C30         96.3930   -11.7790    12.0560 c3         1 IEU       0.213100
     31 H35         94.8180    -5.9700    13.7950 h1         1 IEU       0.063700
     32 H36         93.8970    -5.7560    12.2960 h1         1 IEU       0.063700
     33 H39         91.7560    -3.5360    14.9160 h1         1 IEU       0.055950
     34 H40         90.7290    -3.2660    13.4890 h1         1 IEU       0.055950
     35 H42         91.1450    -5.5420    12.6590 h1         1 IEU       0.063700
     36 H41         90.6030    -5.6470    14.3380 h1         1 IEU       0.063700
     37 H43         93.9660   -12.1950    13.5210 h1         1 IEU       0.077200
     38 H44         92.3860   -12.2090    12.7280 h1         1 IEU       0.077200
     39 H1          95.9070   -12.0360     9.1850 h1         1 IEU       0.053200
     40 H45         96.5700   -13.5920     9.7600 h1         1 IEU       0.053200
     41 H2          94.4500   -14.6900     9.5970 h1         1 IEU       0.073700
     42 H46         93.5390   -11.1740     8.4120 ha         1 IEU       0.115500
     43 H47         93.0410   -10.6330     6.0420 ha         1 IEU       0.111500
     44 H48         93.2540   -12.3880     4.2840 ha         1 IEU       0.111000
     45 H49         93.9690   -14.6930     4.9110 ha         1 IEU       0.111500
     46 H32         90.5120    -9.5490    18.7190 ha         1 IEU       0.133000
     47 H33         91.6410    -6.0650    16.4610 ha         1 IEU       0.135000
     48 H34         91.3500   -11.0190    16.8950 ha         1 IEU       0.139000
     49 H37         94.1910    -3.7230    14.5930 h1         1 IEU       0.055950
     50 H38         94.8420    -3.5830    12.9430 h1         1 IEU       0.055950
     51 H50         94.4700   -15.2430     7.2790 ha         1 IEU       0.115500
     52 H51         97.4140   -11.9350    11.6840 h1         1 IEU       0.039367
     53 H52         96.1890   -10.7000    12.0610 h1         1 IEU       0.039367
     54 H53         96.3420   -12.1510    13.0870 h1         1 IEU       0.039367
     55 Cl31        90.4430    -6.6780    18.9900 cl         1 IEU      -0.197000
@<TRIPOS>BOND
     1     1     5 1   
     2     1    22 1   
     3     2    24 1   
     4     2    25 1   
     5     2    31 1   
     6     2    32 1   
     7     3     4 1   
     8     3    26 1   
     9     3    33 1   
    10     3    34 1   
    11     4    24 1   
    12     4    35 1   
    13     4    36 1   
    14     5     6 1   
    15     5    37 1   
    16     5    38 1   
    17     6    27 1   
    18     6    28 2   
    19     7     8 1   
    20     7    27 1   
    21     7    39 1   
    22     7    40 1   
    23     8     9 1   
    24     8    28 1   
    25     8    41 1   
    26     9    10 ar  
    27     9    29 ar  
    28    10    11 ar  
    29    10    42 1   
    30    11    12 ar  
    31    11    43 1   
    32    12    13 ar  
    33    12    44 1   
    34    13    29 ar  
    35    13    45 1   
    36    14    15 ar  
    37    14    17 ar  
    38    14    46 1   
    39    15    16 ar  
    40    15    55 1   
    41    16    19 ar  
    42    16    47 1   
    43    17    18 ar  
    44    17    48 1   
    45    18    19 ar  
    46    18    23 ar  
    47    19    20 ar  
    48    20    21 ar  
    49    20    24 1   
    50    21    22 ar  
    51    22    23 ar  
    52    25    26 1   
    53    25    49 1   
    54    25    50 1   
    55    27    30 1   
    56    29    51 1   
    57    30    52 1   
    58    30    53 1   
    59    30    54 1   
@<TRIPOS>SUBSTRUCTURE
     1 IEU         1 TEMP              0 ****  ****    0 ROOT
