@<TRIPOS>MOLECULE
IEV
   55    57     1     0     0
SMALL
No Charge or Current Charge


@<TRIPOS>ATOM
      1 C13         10.1180     0.7590   -14.6270 ca         1 IEV      -0.152500
      2 C17          5.5620     0.3010   -13.8240 c3         1 IEV      -0.007700
      3 C20          5.7110     2.4780   -12.5240 ca         1 IEV      -0.102300
      4 C21          6.5560     3.5230   -12.9500 ca         1 IEV      -0.105500
      5 C22          7.3150     4.2460   -12.0150 ca         1 IEV      -0.109000
      6 C24          6.3960     2.8900   -10.2180 ca         1 IEV      -0.109000
      7 C28         11.5490    -0.5250   -12.5840 ca         1 IEV      -0.037000
      8 C02         14.1780    -2.0430   -17.2950 c6         1 IEV       0.138300
      9 C03         14.0190    -0.7990   -18.2210 c6         1 IEV       0.156300
     10 C05         14.8030     0.3960   -17.5810 c6         1 IEV       0.165300
     11 C06         14.6860     1.7230   -18.3940 c3         1 IEV       0.171600
     12 C09         14.5190    -0.4480   -15.3280 c6         1 IEV       0.272300
     13 C11         12.2460     0.1040   -13.6290 ca         1 IEV      -0.151000
     14 C12         11.5240     0.7580   -14.6450 ca         1 IEV      -0.037000
     15 C14          9.4140     0.1100   -13.5900 ca         1 IEV       0.001000
     16 C16          6.9960     0.4740   -14.3850 c          1 IEV       0.623100
     17 C19          4.9090     1.6720   -13.5380 c3         1 IEV      -0.024100
     18 C23          7.2360     3.9310   -10.6490 ca         1 IEV      -0.108000
     19 C25          5.6360     2.1660   -11.1520 ca         1 IEV      -0.105500
     20 C27         10.1440    -0.5230   -12.5680 ca         1 IEV      -0.152500
     21 C29         13.7480    -1.7150   -15.8310 c6         1 IEV       0.105300
     22 N15          7.9950     0.0790   -13.5030 ns         1 IEV      -0.140000
     23 O01         13.4040    -3.1490   -17.7930 oh         1 IEV      -0.666000
     24 O04         12.6110    -0.5210   -18.3920 oh         1 IEV      -0.710000
     25 O07         15.2580     1.6200   -19.7140 oh         1 IEV      -0.726000
     26 O08         14.3220     0.6560   -16.2390 os         1 IEV      -0.431000
     27 O26          7.2070     0.9060   -15.5140 o          1 IEV      -0.553100
     28 O30         13.9680    -2.8710   -14.9860 oh         1 IEV      -0.725000
     29 S10         14.0410     0.0820   -13.6120 ss         1 IEV      -0.182000
     30 S18          4.5290    -0.7650   -14.9550 sh         1 IEV      -0.368800
     31 H131         9.5990     1.2830   -15.4230 ha         1 IEV       0.131500
     32 H171         5.6410    -0.2410   -12.8730 h1         1 IEV       0.072700
     33 H211         6.6290     3.7720   -14.0070 ha         1 IEV       0.116500
     34 H221         7.9670     5.0510   -12.3500 ha         1 IEV       0.116500
     35 H241         6.3340     2.6450    -9.1600 ha         1 IEV       0.116500
     36 H281        12.0970    -1.0200   -11.7840 ha         1 IEV       0.126000
     37 H021        15.2440    -2.3170   -17.2810 h1         1 IEV       0.047700
     38 H031        14.4780    -1.0320   -19.1940 h1         1 IEV       0.068700
     39 H051        15.8700     0.1360   -17.5200 h1         1 IEV       0.049700
     40 H062        15.1960     2.5130   -17.8260 h1         1 IEV       0.041200
     41 H061        13.6250     2.0000   -18.4590 h1         1 IEV       0.041200
     42 H091        15.5940    -0.6800   -15.2770 h2         1 IEV       0.073700
     43 H121        12.0430     1.2780   -15.4450 ha         1 IEV       0.126000
     44 H191         4.8020     2.2270   -14.4790 hc         1 IEV       0.069200
     45 H192         3.8910     1.5120   -13.1620 hc         1 IEV       0.069200
     46 H231         7.8240     4.4910    -9.9250 ha         1 IEV       0.116000
     47 H251         4.9910     1.3600   -10.8090 ha         1 IEV       0.116500
     48 H271         9.6230    -1.0180   -11.7520 ha         1 IEV       0.131500
     49 H291        12.6760    -1.4670   -15.8430 h1         1 IEV       0.071700
     50 H151         7.6510    -0.2810   -12.6230 hn         1 IEV       0.156000
     51 H011        13.3860    -3.7950   -17.0480 ho         1 IEV       0.466000
     52 H041        12.1970    -1.4140   -18.4640 ho         1 IEV       0.520000
     53 H071        15.1160     2.4900   -20.1570 ho         1 IEV       0.511000
     54 H301        13.5990    -2.6550   -14.0970 ho         1 IEV       0.521000
     55 H181         3.4180    -0.7860   -14.1790 hs         1 IEV       0.191800
@<TRIPOS>BOND
     1     1    14 ar  
     2     1    15 ar  
     3     1    31 1   
     4     2    16 1   
     5     2    17 1   
     6     2    30 1   
     7     2    32 1   
     8     3     4 ar  
     9     3    17 1   
    10     3    19 ar  
    11     4     5 ar  
    12     4    33 1   
    13     5    18 ar  
    14     5    34 1   
    15     6    18 ar  
    16     6    19 ar  
    17     6    35 1   
    18     7    13 ar  
    19     7    20 ar  
    20     7    36 1   
    21     8     9 1   
    22     8    21 1   
    23     8    23 1   
    24     8    37 1   
    25     9    10 1   
    26     9    24 1   
    27     9    38 1   
    28    10    11 1   
    29    10    26 1   
    30    10    39 1   
    31    11    25 1   
    32    11    40 1   
    33    11    41 1   
    34    12    21 1   
    35    12    26 1   
    36    12    29 1   
    37    12    42 1   
    38    13    14 ar  
    39    13    29 1   
    40    14    43 1   
    41    15    20 ar  
    42    15    22 1   
    43    16    22 1   
    44    16    27 2   
    45    17    44 1   
    46    17    45 1   
    47    18    46 1   
    48    19    47 1   
    49    20    48 1   
    50    21    28 1   
    51    21    49 1   
    52    22    50 1   
    53    23    51 1   
    54    24    52 1   
    55    25    53 1   
    56    28    54 1   
    57    30    55 1   
@<TRIPOS>SUBSTRUCTURE
     1 IEV         1 TEMP              0 ****  ****    0 ROOT
