@<TRIPOS>MOLECULE
IEV
   55    57     1     0     0
SMALL
bcc


@<TRIPOS>ATOM
      1 C13          9.9870     1.8350   -15.4600 ca         1 IEV      -0.170500
      2 C17          5.5570     1.4040   -14.5950 c3         1 IEV      -0.055600
      3 C20          5.8770     1.9700   -12.1620 ca         1 IEV      -0.102300
      4 C21          6.8700     2.8640   -11.7710 ca         1 IEV      -0.123500
      5 C22          7.6650     2.6010   -10.6620 ca         1 IEV      -0.127000
      6 C24          6.4860     0.5390   -10.3110 ca         1 IEV      -0.127000
      7 C28         11.4170     0.7610   -13.3320 ca         1 IEV      -0.055000
      8 C02         14.4940    -2.0530   -16.0920 c6         1 IEV       0.115100
      9 C03         14.0240    -1.6370   -17.4830 c6         1 IEV       0.133100
     10 C05         14.4650    -0.2000   -17.7320 c6         1 IEV       0.142100
     11 C06         13.9950     0.3810   -19.0560 c3         1 IEV       0.148400
     12 C09         14.4250     0.3430   -15.4470 c6         1 IEV       0.201200
     13 C11         12.0950     1.4200   -14.3530 ca         1 IEV      -0.024100
     14 C12         11.3660     1.9610   -15.4070 ca         1 IEV      -0.055000
     15 C14          9.3110     1.1720   -14.4350 ca         1 IEV       0.093600
     16 C16          6.9800     1.8010   -14.9470 c          1 IEV       0.690100
     17 C19          5.0540     2.2230   -13.3960 c3         1 IEV      -0.024100
     18 C23          7.4760     1.4370    -9.9300 ca         1 IEV      -0.126000
     19 C25          5.6920     0.8070   -11.4170 ca         1 IEV      -0.123500
     20 C27         10.0390     0.6430   -13.3700 ca         1 IEV      -0.170500
     21 C29         13.9940    -1.0680   -15.0410 c6         1 IEV       0.082100
     22 N15          7.9250     0.9810   -14.4280 ns         1 IEV      -0.466100
     23 O01         14.0340    -3.3610   -15.8580 oh         1 IEV      -0.603800
     24 O04         12.6270    -1.7140   -17.6090 oh         1 IEV      -0.587800
     25 O07         14.4950    -0.4340   -20.0890 oh         1 IEV      -0.603800
     26 O08         13.9690     0.6670   -16.7250 os         1 IEV      -0.384600
     27 O26          7.2130     2.7930   -15.6100 o          1 IEV      -0.553100
     28 O30         14.5560    -1.4450   -13.8110 oh         1 IEV      -0.602800
     29 S10         13.8550     1.6110   -14.2750 ss         1 IEV      -0.261000
     30 S18          4.5580     1.7140   -16.0910 sh         1 IEV      -0.320900
     31 H131         9.4550     2.2440   -16.3040 ha         1 IEV       0.149500
     32 H171         5.4990     0.3390   -14.3610 h1         1 IEV       0.072700
     33 H211         7.0240     3.7740   -12.3390 ha         1 IEV       0.134500
     34 H221         8.4300     3.3080   -10.3700 ha         1 IEV       0.134500
     35 H241         6.3300    -0.3690    -9.7420 ha         1 IEV       0.134500
     36 H281        11.9630     0.3430   -12.4960 ha         1 IEV       0.144000
     37 H021        15.5960    -2.0170   -16.0910 h1         1 IEV       0.047700
     38 H031        14.5290    -2.2790   -18.2180 h1         1 IEV       0.068700
     39 H051        15.5660    -0.1910   -17.7180 h1         1 IEV       0.049700
     40 H062        14.3700     1.4090   -19.1340 h1         1 IEV       0.041200
     41 H061        12.9000     0.4350   -19.0670 h1         1 IEV       0.041200
     42 H091        15.5230     0.4120   -15.3820 h2         1 IEV       0.073700
     43 H121        11.8760     2.4860   -16.2030 ha         1 IEV       0.144000
     44 H191         5.0720     3.2820   -13.6580 hc         1 IEV       0.069200
     45 H192         4.0120     1.9510   -13.2180 hc         1 IEV       0.069200
     46 H231         8.0950     1.2310    -9.0660 ha         1 IEV       0.134000
     47 H251         4.9200     0.1030   -11.7060 ha         1 IEV       0.134500
     48 H271         9.5230     0.1350   -12.5640 ha         1 IEV       0.149500
     49 H291        12.8960    -1.1070   -15.0130 h1         1 IEV       0.071700
     50 H151         7.5960     0.2420   -13.8240 hn         1 IEV       0.322500
     51 H011        14.2590    -3.6100   -14.9550 ho         1 IEV       0.427000
     52 H041        12.3540    -2.6040   -17.3600 ho         1 IEV       0.421000
     53 H071        14.1570    -0.1020   -20.9250 ho         1 IEV       0.412000
     54 H301        14.1650    -0.9090   -13.1130 ho         1 IEV       0.422000
     55 H181         3.4790     1.0430   -15.6700 hs         1 IEV       0.191800
@<TRIPOS>BOND
     1     1    14 ar  
     2     1    15 ar  
     3     1    31 1   
     4     2    16 1   
     5     2    17 1   
     6     2    30 1   
     7     2    32 1   
     8     3     4 ar  
     9     3    17 1   
    10     3    19 ar  
    11     4     5 ar  
    12     4    33 1   
    13     5    18 ar  
    14     5    34 1   
    15     6    18 ar  
    16     6    19 ar  
    17     6    35 1   
    18     7    13 ar  
    19     7    20 ar  
    20     7    36 1   
    21     8     9 1   
    22     8    21 1   
    23     8    23 1   
    24     8    37 1   
    25     9    10 1   
    26     9    24 1   
    27     9    38 1   
    28    10    11 1   
    29    10    26 1   
    30    10    39 1   
    31    11    25 1   
    32    11    40 1   
    33    11    41 1   
    34    12    21 1   
    35    12    26 1   
    36    12    29 1   
    37    12    42 1   
    38    13    14 ar  
    39    13    29 1   
    40    14    43 1   
    41    15    20 ar  
    42    15    22 1   
    43    16    22 1   
    44    16    27 2   
    45    17    44 1   
    46    17    45 1   
    47    18    46 1   
    48    19    47 1   
    49    20    48 1   
    50    21    28 1   
    51    21    49 1   
    52    22    50 1   
    53    23    51 1   
    54    24    52 1   
    55    25    53 1   
    56    28    54 1   
    57    30    55 1   
@<TRIPOS>SUBSTRUCTURE
     1 IEV         1 TEMP              0 ****  ****    0 ROOT
