@<TRIPOS>MOLECULE
IEX
   52    56     1     0     0
SMALL
abcg2


@<TRIPOS>ATOM
      1 C11         95.2800    -8.0570    13.8710 c3         1 IEX      -0.148400
      2 C13         94.2340   -11.1860    12.3300 c3         1 IEX      -0.099700
      3 C16         95.9740   -12.5710     9.4450 cc         1 IEX      -0.201000
      4 C17         94.6600   -12.8190     9.1530 cd         1 IEX       0.298500
      5 C19         94.0960   -13.4850     7.9800 ca         1 IEX      -0.101500
      6 C20         92.7190   -13.6870     7.8760 ca         1 IEX      -0.095000
      7 C21         92.1760   -14.3230     6.7690 ca         1 IEX      -0.115000
      8 C22         92.9980   -14.7690     5.7420 ca         1 IEX      -0.111000
      9 C23         94.3710   -14.5710     5.8350 ca         1 IEX      -0.115000
     10 C24         94.9140   -13.9360     6.9410 ca         1 IEX      -0.095000
     11 C25         97.1330   -11.4930    11.3430 ca         1 IEX      -0.011200
     12 C26         98.0460   -12.4370    11.7960 ca         1 IEX      -0.104000
     13 C27         99.1890   -12.0170    12.4620 ca         1 IEX      -0.102500
     14 C28         99.4110   -10.6640    12.6840 ca         1 IEX      -0.101000
     15 C1          89.5720    -9.0060    16.5150 ca         1 IEX      -0.104000
     16 C2          90.3730    -8.2100    17.3590 ca         1 IEX      -0.102000
     17 C3          91.6490    -7.8720    16.9930 ca         1 IEX      -0.077000
     18 C4          90.0560    -9.4570    15.3150 ca         1 IEX      -0.072000
     19 C5          91.3680    -9.1230    14.9210 ca         1 IEX       0.225000
     20 C6          92.1690    -8.3250    15.7630 ca         1 IEX       0.229000
     21 N7          93.4300    -7.9930    15.4010 nb         1 IEX      -0.641000
     22 C8          93.8870    -8.4320    14.2610 ca         1 IEX       0.326300
     23 C9          93.0700    -9.2480    13.4040 ca         1 IEX       0.317300
     24 N10         91.8530    -9.5710    13.7390 nb         1 IEX      -0.630000
     25 C12         93.5960    -9.8040    12.1130 c3         1 IEX      -0.124700
     26 C14         94.6750   -11.8130    11.0520 cc         1 IEX       0.417800
     27 N15         95.9720   -11.9240    10.6520 na         1 IEX      -0.077300
     28 N18         93.8730   -12.3410    10.1660 nd         1 IEX      -0.667000
     29 C29         98.4930    -9.7270    12.2270 ca         1 IEX      -0.102500
     30 C30         97.3570   -10.1390    11.5450 ca         1 IEX      -0.104000
     31 H36         95.7410    -7.4660    14.6590 hc         1 IEX       0.054700
     32 H35         95.8990    -8.9380    13.6960 hc         1 IEX       0.054700
     33 H37         95.2910    -7.4720    12.9490 hc         1 IEX       0.054700
     34 H40         95.0670   -11.1180    13.0310 hc         1 IEX       0.067200
     35 H41         93.4930   -11.8430    12.7890 hc         1 IEX       0.067200
     36 H42         96.8920   -12.7760     8.9200 h4         1 IEX       0.161000
     37 H43         92.0690   -13.3450     8.6700 ha         1 IEX       0.118500
     38 H44         91.1060   -14.4720     6.7090 ha         1 IEX       0.110000
     39 H45         92.5750   -15.2640     4.8780 ha         1 IEX       0.110000
     40 H46         95.0230   -14.9110     5.0410 ha         1 IEX       0.110000
     41 H47         95.9860   -13.7930     6.9890 ha         1 IEX       0.118500
     42 H48         97.8600   -13.4910    11.6350 ha         1 IEX       0.129500
     43 H49         99.9010   -12.7510    12.8150 ha         1 IEX       0.121500
     44 H50        100.2990   -10.3400    13.2100 ha         1 IEX       0.120000
     45 H31         88.5660    -9.2600    16.8220 ha         1 IEX       0.119000
     46 H32         89.9720    -7.8640    18.3020 ha         1 IEX       0.118000
     47 H33         92.2750    -7.2600    17.6300 ha         1 IEX       0.132000
     48 H34         89.4530   -10.0690    14.6570 ha         1 IEX       0.134000
     49 H39         92.7630    -9.9070    11.4170 hc         1 IEX       0.068700
     50 H38         94.3170    -9.1250    11.6570 hc         1 IEX       0.068700
     51 H51         98.6650    -8.6720    12.3910 ha         1 IEX       0.121500
     52 H52         96.6520    -9.4090    11.1660 ha         1 IEX       0.129500
@<TRIPOS>BOND
     1     1    22 1   
     2     1    31 1   
     3     1    32 1   
     4     1    33 1   
     5     2    25 1   
     6     2    26 1   
     7     2    34 1   
     8     2    35 1   
     9     3     4 2   
    10     3    27 1   
    11     3    36 1   
    12     4     5 1   
    13     4    28 1   
    14     5     6 ar  
    15     5    10 ar  
    16     6     7 ar  
    17     6    37 1   
    18     7     8 ar  
    19     7    38 1   
    20     8     9 ar  
    21     8    39 1   
    22     9    10 ar  
    23     9    40 1   
    24    10    41 1   
    25    11    12 ar  
    26    11    27 1   
    27    11    30 ar  
    28    12    13 ar  
    29    12    42 1   
    30    13    14 ar  
    31    13    43 1   
    32    14    29 ar  
    33    14    44 1   
    34    15    16 ar  
    35    15    18 ar  
    36    15    45 1   
    37    16    17 ar  
    38    16    46 1   
    39    17    20 ar  
    40    17    47 1   
    41    18    19 ar  
    42    18    48 1   
    43    19    20 ar  
    44    19    24 ar  
    45    20    21 ar  
    46    21    22 ar  
    47    22    23 ar  
    48    23    24 ar  
    49    23    25 1   
    50    25    49 1   
    51    25    50 1   
    52    26    27 1   
    53    26    28 2   
    54    29    30 ar  
    55    29    51 1   
    56    30    52 1   
@<TRIPOS>SUBSTRUCTURE
     1 IEX         1 TEMP              0 ****  ****    0 ROOT
