@<TRIPOS>MOLECULE
IEX
   52    56     1     0     0
SMALL
No Charge or Current Charge


@<TRIPOS>ATOM
      1 C11         95.6930    -8.9920    14.4220 c3         1 IEX      -0.148400
      2 C13         93.9640   -11.5300    12.3190 c3         1 IEX      -0.099700
      3 C16         95.8700   -12.4590     9.2790 cc         1 IEX      -0.201000
      4 C17         94.6050   -12.9410     9.0280 cd         1 IEX       0.298500
      5 C19         94.1540   -13.6250     7.7950 ca         1 IEX      -0.101500
      6 C20         92.8190   -14.0710     7.6610 ca         1 IEX      -0.095000
      7 C21         92.3930   -14.7200     6.4880 ca         1 IEX      -0.115000
      8 C22         93.2950   -14.9320     5.4340 ca         1 IEX      -0.111000
      9 C23         94.6230   -14.4950     5.5530 ca         1 IEX      -0.115000
     10 C24         95.0510   -13.8460     6.7250 ca         1 IEX      -0.095000
     11 C25         96.8020   -11.2690    11.1940 ca         1 IEX      -0.011200
     12 C26         97.3980   -11.8280    12.3410 ca         1 IEX      -0.104000
     13 C27         98.4330   -11.1460    13.0030 ca         1 IEX      -0.102500
     14 C28         98.8760    -9.9020    12.5210 ca         1 IEX      -0.101000
     15 C1          89.6390    -8.4140    16.5570 ca         1 IEX      -0.104000
     16 C2          90.5440    -7.9510    17.5230 ca         1 IEX      -0.102000
     17 C3          91.9240    -7.9840    17.2640 ca         1 IEX      -0.077000
     18 C4          90.1160    -8.9080    15.3310 ca         1 IEX      -0.072000
     19 C5          91.4950    -8.9490    15.0520 ca         1 IEX       0.225000
     20 C6          92.4210    -8.4760    16.0420 ca         1 IEX       0.229000
     21 N7          93.7630    -8.4920    15.8270 nb         1 IEX      -0.641000
     22 C8          94.1840    -8.9780    14.6290 ca         1 IEX       0.326300
     23 C9          93.2620    -9.4480    13.6420 ca         1 IEX       0.317300
     24 N10         91.9190    -9.4340    13.8560 nb         1 IEX      -0.630000
     25 C12         93.7020   -10.0030    12.2900 c3         1 IEX      -0.124700
     26 C14         94.4840   -12.0660    11.0090 cc         1 IEX       0.417800
     27 N15         95.7710   -11.9390    10.5410 na         1 IEX      -0.077300
     28 N18         93.7520   -12.6900    10.0980 nd         1 IEX      -0.667000
     29 C29         98.2880    -9.3440    11.3740 ca         1 IEX      -0.102500
     30 C30         97.2560   -10.0280    10.7080 ca         1 IEX      -0.104000
     31 H36         96.2310    -8.6110    15.2980 hc         1 IEX       0.054700
     32 H35         96.0510   -10.0110    14.2370 hc         1 IEX       0.054700
     33 H37         95.9800    -8.3710    13.5660 hc         1 IEX       0.054700
     34 H40         94.6740   -11.7670    13.1190 hc         1 IEX       0.067200
     35 H41         93.0320   -12.0460    12.5790 hc         1 IEX       0.067200
     36 H42         96.7790   -12.4550     8.6940 h4         1 IEX       0.161000
     37 H43         92.1030   -13.9170     8.4650 ha         1 IEX       0.118500
     38 H44         91.3630   -15.0580     6.3980 ha         1 IEX       0.110000
     39 H45         92.9650   -15.4340     4.5260 ha         1 IEX       0.110000
     40 H46         95.3230   -14.6580     4.7370 ha         1 IEX       0.110000
     41 H47         96.0840   -13.5170     6.7910 ha         1 IEX       0.118500
     42 H48         97.0610   -12.7920    12.7180 ha         1 IEX       0.129500
     43 H49         98.8910   -11.5800    13.8900 ha         1 IEX       0.121500
     44 H50         99.6750    -9.3730    13.0360 ha         1 IEX       0.120000
     45 H31         88.5700    -8.3900    16.7550 ha         1 IEX       0.119000
     46 H32         90.1770    -7.5680    18.4740 ha         1 IEX       0.118000
     47 H33         92.6200    -7.6240    18.0180 ha         1 IEX       0.132000
     48 H34         89.4090    -9.2650    14.5860 ha         1 IEX       0.134000
     49 H39         92.9370    -9.7930    11.5320 hc         1 IEX       0.068700
     50 H38         94.6030    -9.4840    11.9430 hc         1 IEX       0.068700
     51 H51         98.6320    -8.3820    10.9990 ha         1 IEX       0.121500
     52 H52         96.8030    -9.5910     9.8210 ha         1 IEX       0.129500
@<TRIPOS>BOND
     1     1    22 1   
     2     1    31 1   
     3     1    32 1   
     4     1    33 1   
     5     2    25 1   
     6     2    26 1   
     7     2    34 1   
     8     2    35 1   
     9     3     4 2   
    10     3    27 1   
    11     3    36 1   
    12     4     5 1   
    13     4    28 1   
    14     5     6 ar  
    15     5    10 ar  
    16     6     7 ar  
    17     6    37 1   
    18     7     8 ar  
    19     7    38 1   
    20     8     9 ar  
    21     8    39 1   
    22     9    10 ar  
    23     9    40 1   
    24    10    41 1   
    25    11    12 ar  
    26    11    27 1   
    27    11    30 ar  
    28    12    13 ar  
    29    12    42 1   
    30    13    14 ar  
    31    13    43 1   
    32    14    29 ar  
    33    14    44 1   
    34    15    16 ar  
    35    15    18 ar  
    36    15    45 1   
    37    16    17 ar  
    38    16    46 1   
    39    17    20 ar  
    40    17    47 1   
    41    18    19 ar  
    42    18    48 1   
    43    19    20 ar  
    44    19    24 ar  
    45    20    21 ar  
    46    21    22 ar  
    47    22    23 ar  
    48    23    24 ar  
    49    23    25 1   
    50    25    49 1   
    51    25    50 1   
    52    26    27 1   
    53    26    28 2   
    54    29    30 ar  
    55    29    51 1   
    56    30    52 1   
@<TRIPOS>SUBSTRUCTURE
     1 IEX         1 TEMP              0 ****  ****    0 ROOT
