@<TRIPOS>MOLECULE
IEY
   40    42     1     0     0
SMALL
No Charge or Current Charge


@<TRIPOS>ATOM
      1 CA1          5.8690     1.5310    -3.0970 ce         1 IEY      -0.189800
      2 CB1          5.8960     2.6690    -2.3380 cf         1 IEY      -0.292800
      3 CG1          6.8090     3.7990    -2.4510 cd         1 IEY       0.323800
      4 C1           4.9580     0.3950    -2.9570 cc         1 IEY       0.403300
      5 N2           3.7800     0.4960    -2.3510 nd         1 IEY      -0.662000
      6 N3           5.2600    -0.9300    -3.2560 na         1 IEY      -0.183500
      7 C2           4.1570    -1.6620    -2.8730 cc         1 IEY       0.111100
      8 O2           4.0640    -3.0020    -3.0300 oh         1 IEY      -0.619100
      9 CA2          3.2580    -0.7810    -2.3240 cd         1 IEY       0.135300
     10 CA3          6.4900    -1.4420    -3.9230 c3         1 IEY      -0.082400
     11 CB2          1.9040    -1.0840    -1.7300 c3         1 IEY      -0.017400
     12 CG2          1.9720    -1.5280    -0.2740 ca         1 IEY      -0.082300
     13 CD1          1.9410    -0.5730     0.7610 ca         1 IEY      -0.063000
     14 CD2          2.0770    -2.8950     0.0490 ca         1 IEY      -0.063000
     15 CE1          2.0080    -0.9810     2.1060 ca         1 IEY      -0.180500
     16 CE2          2.1430    -3.3020     1.3930 ca         1 IEY      -0.180500
     17 CZ           2.1080    -2.3460     2.4190 ca         1 IEY       0.114100
     18 OH           2.1730    -2.7470     3.7190 oh         1 IEY      -0.547100
     19 C            7.1640    -2.6210    -3.2050 c          1 IEY       0.720000
     20 O            6.5670    -3.6890    -3.2120 o          1 IEY      -0.684000
     21 CD3          6.8170     4.9290    -1.6770 cc         1 IEY      -0.244000
     22 NE1          7.8590     5.6910    -2.1690 na         1 IEY      -0.310500
     23 N21          7.8100     3.8460    -3.3960 nd         1 IEY      -0.666000
     24 C22          8.4330     4.9990    -3.2080 cc         1 IEY       0.377400
     25 OXT          8.2250    -2.4300    -2.6310 o          1 IEY      -0.684000
     26 HA1          6.6180     1.4180    -3.8790 ha         1 IEY       0.193000
     27 HB1          5.1550     2.7720    -1.5440 ha         1 IEY       0.187000
     28 H2           4.9990    -3.3390    -3.1690 ho         1 IEY       0.556000
     29 HA31         7.2320    -0.6410    -4.0110 h1         1 IEY       0.053200
     30 HA32         6.2300    -1.7690    -4.9370 h1         1 IEY       0.053200
     31 HB21         1.4140    -1.8600    -2.3300 hc         1 IEY       0.042700
     32 HB22         1.2570    -0.2030    -1.8170 hc         1 IEY       0.042700
     33 HD1          1.8680     0.4860     0.5220 ha         1 IEY       0.118500
     34 HD2          2.1090    -3.6420    -0.7420 ha         1 IEY       0.118500
     35 HE1          1.9830    -0.2340     2.8950 ha         1 IEY       0.107500
     36 HE2          2.2240    -4.3580     1.6370 ha         1 IEY       0.107500
     37 HO1          2.1370    -1.9510     4.2910 ho         1 IEY       0.451000
     38 HD3          6.1850     5.2290    -0.8510 h4         1 IEY       0.153000
     39 HA           8.1620     6.6000    -1.8370 hn         1 IEY       0.339000
     40 H22          9.2770     5.3800    -3.7710 h5         1 IEY       0.045100
@<TRIPOS>BOND
     1     1     2 2   
     2     1     4 1   
     3     1    26 1   
     4     2     3 1   
     5     2    27 1   
     6     3    21 2   
     7     3    23 1   
     8     4     5 2   
     9     4     6 1   
    10     5     9 1   
    11     6     7 1   
    12     6    10 1   
    13     7     8 1   
    14     7     9 2   
    15     8    28 1   
    16     9    11 1   
    17    10    19 1   
    18    10    29 1   
    19    10    30 1   
    20    11    12 1   
    21    11    31 1   
    22    11    32 1   
    23    12    13 ar  
    24    12    14 ar  
    25    13    15 ar  
    26    13    33 1   
    27    14    16 ar  
    28    14    34 1   
    29    15    17 ar  
    30    15    35 1   
    31    16    17 ar  
    32    16    36 1   
    33    17    18 1   
    34    18    37 1   
    35    19    20 1   
    36    19    25 1   
    37    21    22 1   
    38    21    38 1   
    39    22    24 1   
    40    22    39 1   
    41    23    24 2   
    42    24    40 1   
@<TRIPOS>SUBSTRUCTURE
     1 IEY         1 TEMP              0 ****  ****    0 ROOT
