@<TRIPOS>MOLECULE
IEY
   40    42     1     0     0
SMALL
abcg2


@<TRIPOS>ATOM
      1 CA1          5.9860     1.2770    -2.7920 ce         1 IEY      -0.189800
      2 CB1          5.7900     2.4270    -2.1270 cf         1 IEY      -0.292800
      3 CG1          6.7150     3.5370    -2.1230 cd         1 IEY       0.323800
      4 C1           5.0440     0.1810    -2.7780 cc         1 IEY       0.403300
      5 N2           3.9040     0.1680    -2.1270 nd         1 IEY      -0.662000
      6 N3           5.2290    -1.0020    -3.4500 na         1 IEY      -0.183500
      7 C2           4.1330    -1.7830    -3.1820 cc         1 IEY       0.111100
      8 O2           3.9940    -3.0010    -3.6860 oh         1 IEY      -0.619100
      9 CA2          3.3220    -1.0420    -2.3600 cd         1 IEY       0.135300
     10 CA3          6.2940    -1.3570    -4.3700 c3         1 IEY      -0.082400
     11 CB2          2.0160    -1.4380    -1.7550 c3         1 IEY      -0.017400
     12 CG2          2.0840    -1.5330    -0.2510 ca         1 IEY      -0.082300
     13 CD1          1.6430    -0.4940     0.5580 ca         1 IEY      -0.063000
     14 CD2          2.6270    -2.6540     0.3720 ca         1 IEY      -0.063000
     15 CE1          1.7310    -0.5620     1.9430 ca         1 IEY      -0.180500
     16 CE2          2.7240    -2.7420     1.7520 ca         1 IEY      -0.180500
     17 CZ           2.2740    -1.6910     2.5480 ca         1 IEY       0.114100
     18 OH           2.3860    -1.8200     3.8890 oh         1 IEY      -0.547100
     19 C            7.0660    -2.6440    -4.0150 c          1 IEY       0.720000
     20 O            6.3910    -3.6080    -3.5490 o          1 IEY      -0.684000
     21 CD3          6.5620     4.7350    -1.4670 cc         1 IEY      -0.244000
     22 NE1          7.6790     5.4550    -1.7590 na         1 IEY      -0.310500
     23 N21          7.9080     3.5360    -2.8020 nd         1 IEY      -0.666000
     24 C22          8.4550     4.6970    -2.5600 cc         1 IEY       0.377400
     25 OXT          8.2710    -2.6580    -4.2600 o          1 IEY      -0.684000
     26 HA1          6.8950     1.1640    -3.3700 ha         1 IEY       0.193000
     27 HB1          4.8840     2.5560    -1.5450 ha         1 IEY       0.187000
     28 H2           4.9420    -3.4060    -3.6700 ho         1 IEY       0.556000
     29 HA31         6.9930    -0.5300    -4.4330 h1         1 IEY       0.053200
     30 HA32         5.8700    -1.4830    -5.3720 h1         1 IEY       0.053200
     31 HB21         1.7050    -2.3980    -2.1730 hc         1 IEY       0.042700
     32 HB22         1.2420    -0.7160    -2.0340 hc         1 IEY       0.042700
     33 HD1          1.2170     0.3940     0.1050 ha         1 IEY       0.118500
     34 HD2          2.9870    -3.4800    -0.2300 ha         1 IEY       0.118500
     35 HE1          1.3750     0.2660     2.5460 ha         1 IEY       0.107500
     36 HE2          3.1450    -3.6250     2.2150 ha         1 IEY       0.107500
     37 HO1          2.0440    -1.0340     4.3290 ho         1 IEY       0.451000
     38 HD3          5.7740     5.1150    -0.8390 h4         1 IEY       0.153000
     39 HA           7.8890     6.3860    -1.4370 hn         1 IEY       0.339000
     40 H22          9.4050     5.0420    -2.9370 h5         1 IEY       0.045100
@<TRIPOS>BOND
     1     1     2 2   
     2     1     4 1   
     3     1    26 1   
     4     2     3 1   
     5     2    27 1   
     6     3    21 2   
     7     3    23 1   
     8     4     5 2   
     9     4     6 1   
    10     5     9 1   
    11     6     7 1   
    12     6    10 1   
    13     7     8 1   
    14     7     9 2   
    15     8    28 1   
    16     9    11 1   
    17    10    19 1   
    18    10    29 1   
    19    10    30 1   
    20    11    12 1   
    21    11    31 1   
    22    11    32 1   
    23    12    13 ar  
    24    12    14 ar  
    25    13    15 ar  
    26    13    33 1   
    27    14    16 ar  
    28    14    34 1   
    29    15    17 ar  
    30    15    35 1   
    31    16    17 ar  
    32    16    36 1   
    33    17    18 1   
    34    18    37 1   
    35    19    20 1   
    36    19    25 1   
    37    21    22 1   
    38    21    38 1   
    39    22    24 1   
    40    22    39 1   
    41    23    24 2   
    42    24    40 1   
@<TRIPOS>SUBSTRUCTURE
     1 IEY         1 TEMP              0 ****  ****    0 ROOT
