@<TRIPOS>MOLECULE
IEZ
   39    41     1     0     0
SMALL
bcc


@<TRIPOS>ATOM
      1 CD1          6.9310   -15.9580   -12.8530 ca         1 IEZ      -0.084500
      2 CE1          6.4500   -14.6890   -13.1440 ca         1 IEZ      -0.174000
      3 CZ           7.1590   -13.5950   -12.6900 ca         1 IEZ       0.113900
      4 FAX          6.6990   -12.3600   -12.9590 f          1 IEZ      -0.166900
      5 CE2          8.3300   -13.7300   -11.9690 ca         1 IEZ      -0.174000
      6 CD2          8.7930   -15.0090   -11.6940 ca         1 IEZ      -0.084500
      7 CG           8.1030   -16.1400   -12.1250 ca         1 IEZ      -0.052300
      8 CB           8.6040   -17.5130   -11.7830 c3         1 IEZ      -0.030100
      9 CA           8.1850   -17.9570   -10.3760 c3         1 IEZ      -0.034300
     10 C            6.6360   -18.0420   -10.2820 c          1 IEZ       0.930600
     11 O            6.1140   -19.0310   -10.8260 o          1 IEZ      -0.815800
     12 OXT          6.0700   -17.0910    -9.7160 o          1 IEZ      -0.815800
     13 N            8.8290   -19.2280   -10.1020 ns         1 IEZ      -0.530900
     14 CAL          8.7610   -19.8060    -8.9000 c          1 IEZ       0.566600
     15 OAQ          8.1790   -19.3270    -7.9410 o          1 IEZ      -0.548100
     16 C7           9.5110   -21.1070    -8.7590 ca         1 IEZ       0.320500
     17 N8           8.9800   -21.9940    -7.9480 nb         1 IEZ      -0.592000
     18 C8A          9.6490   -23.1370    -7.7470 ca         1 IEZ       0.585000
     19 N1           9.0890   -24.0450    -6.9220 nc         1 IEZ      -0.758700
     20 C2           9.7500   -25.1510    -6.7080 cd         1 IEZ       0.741800
     21 N2           9.2450   -26.0790    -5.9010 nv         1 IEZ      -0.955800
     22 N3          10.9660   -25.4210    -7.2780 ns         1 IEZ      -0.530400
     23 C4          11.6300   -24.5720    -8.1380 c          1 IEZ       0.637000
     24 O4          12.7070   -24.8570    -8.6110 o          1 IEZ      -0.585500
     25 C4A         10.8890   -23.3320    -8.3880 ca         1 IEZ       0.137500
     26 N5          11.4220   -22.4290    -9.1970 nb         1 IEZ      -0.578000
     27 C6          10.7430   -21.3200    -9.3960 ca         1 IEZ       0.254900
     28 H1           6.3780   -16.8230   -13.1990 ha         1 IEZ       0.137000
     29 H2           5.5380   -14.5570   -13.7130 ha         1 IEZ       0.134000
     30 H3           8.8720   -12.8570   -11.6310 ha         1 IEZ       0.134000
     31 H4           9.7130   -15.1240   -11.1330 ha         1 IEZ       0.137000
     32 H5           8.2310   -18.2390   -12.5100 hc         1 IEZ       0.032700
     33 H6           9.6960   -17.5290   -11.8480 hc         1 IEZ       0.032700
     34 H7           8.5540   -17.2240    -9.6540 h1         1 IEZ       0.058700
     35 H9           9.2060   -19.7510   -10.8780 hn         1 IEZ       0.296500
     36 H10          8.3530   -25.9110    -5.4670 hn         1 IEZ       0.453800
     37 H11          9.7090   -26.9500    -5.7040 hn         1 IEZ       0.453800
     38 H12         11.4280   -26.2980    -7.0650 hn         1 IEZ       0.315500
     39 H13         11.1880   -20.5720   -10.0400 h4         1 IEZ       0.038100
@<TRIPOS>BOND
     1     1     2 ar  
     2     1     7 ar  
     3     1    28 1   
     4     2     3 ar  
     5     2    29 1   
     6     3     4 1   
     7     3     5 ar  
     8     5     6 ar  
     9     5    30 1   
    10     6     7 ar  
    11     6    31 1   
    12     7     8 1   
    13     8     9 1   
    14     8    32 1   
    15     8    33 1   
    16     9    10 1   
    17     9    13 1   
    18     9    34 1   
    19    10    11 1   
    20    10    12 1   
    21    13    14 1   
    22    13    35 1   
    23    14    15 2   
    24    14    16 1   
    25    16    17 ar  
    26    16    27 ar  
    27    17    18 ar  
    28    18    19 1   
    29    18    25 ar  
    30    19    20 2   
    31    20    21 1   
    32    20    22 1   
    33    21    36 1   
    34    21    37 1   
    35    22    23 1   
    36    22    38 1   
    37    23    24 2   
    38    23    25 1   
    39    25    26 ar  
    40    26    27 ar  
    41    27    39 1   
@<TRIPOS>SUBSTRUCTURE
     1 IEZ         1 TEMP              0 ****  ****    0 ROOT
