@<TRIPOS>MOLECULE
IEZ
   39    41     1     0     0
SMALL
No Charge or Current Charge


@<TRIPOS>ATOM
      1 CD1          8.2560   -15.4340   -12.9200 ca         1 IEZ      -0.066500
      2 CE1          7.8190   -14.1160   -13.1460 ca         1 IEZ      -0.156000
      3 CZ           7.4390   -13.3100   -12.0620 ca         1 IEZ       0.149000
      4 FAX          7.0200   -12.0450   -12.2810 f          1 IEZ      -0.202000
      5 CE2          7.4940   -13.8110   -10.7530 ca         1 IEZ      -0.156000
      6 CD2          7.9300   -15.1280   -10.5250 ca         1 IEZ      -0.066500
      7 CG           8.3140   -15.9460   -11.6070 ca         1 IEZ      -0.052300
      8 CB           8.7840   -17.3730   -11.3560 c3         1 IEZ      -0.030100
      9 CA           7.6150   -18.3330   -11.0280 c3         1 IEZ      -0.034300
     10 C            6.6380   -18.4890   -12.2340 c          1 IEZ       0.720000
     11 O            7.0080   -19.1420   -13.2010 o          1 IEZ      -0.710500
     12 OXT          5.4980   -18.0600   -12.1120 o          1 IEZ      -0.710500
     13 N            8.1100   -19.6620   -10.5900 ns         1 IEZ      -0.463900
     14 CAL          8.6130   -19.9500    -9.3310 c          1 IEZ       0.499600
     15 OAQ          8.6500   -19.0930    -8.4570 o          1 IEZ      -0.548100
     16 C7           9.1030   -21.3610    -9.0930 ca         1 IEZ       0.057500
     17 N8           9.5910   -21.6550    -7.8640 nb         1 IEZ      -0.066000
     18 C8A         10.0440   -22.9030    -7.5970 ca         1 IEZ       0.322000
     19 N1          10.5480   -23.1790    -6.3000 nc         1 IEZ      -0.758700
     20 C2          10.9510   -24.4140    -6.1720 cd         1 IEZ       0.741800
     21 N2          11.4160   -24.6970    -4.9760 nv         1 IEZ      -1.066200
     22 N3          10.9480   -25.4070    -7.0680 ns         1 IEZ      -0.463400
     23 C4          10.4950   -25.2620    -8.3350 c          1 IEZ       0.494500
     24 O4          10.5170   -26.1950    -9.1280 o          1 IEZ      -0.510000
     25 C4A          9.9880   -23.8780    -8.6430 ca         1 IEZ       0.137500
     26 N5           9.5000   -23.6020    -9.8890 nb         1 IEZ      -0.578000
     27 C6           9.0610   -22.3430   -10.1030 ca         1 IEZ       0.254900
     28 H1           8.5480   -16.0560   -13.7630 ha         1 IEZ       0.119000
     29 H2           7.7740   -13.7220   -14.1580 ha         1 IEZ       0.116000
     30 H3           7.1980   -13.1810    -9.9180 ha         1 IEZ       0.116000
     31 H4           7.9710   -15.5150    -9.5090 ha         1 IEZ       0.119000
     32 H5           9.3380   -17.7570   -12.2220 hc         1 IEZ       0.032700
     33 H6           9.4950   -17.3710   -10.5210 hc         1 IEZ       0.032700
     34 H7           7.0370   -17.9030   -10.2000 h1         1 IEZ       0.058700
     35 H9           8.0970   -20.4100   -11.2750 hn         1 IEZ       0.296500
     36 H10         11.2190   -23.9680    -4.3020 hn         1 IEZ       0.509000
     37 H11         11.2690   -25.6400    -4.6380 hn         1 IEZ       0.509000
     38 H12         11.3190   -26.3090    -6.8200 hn         1 IEZ       0.315500
     39 H13          8.6750   -22.1350   -11.0990 h4         1 IEZ       0.038100
@<TRIPOS>BOND
     1     1     2 ar  
     2     1     7 ar  
     3     1    28 1   
     4     2     3 ar  
     5     2    29 1   
     6     3     4 1   
     7     3     5 ar  
     8     5     6 ar  
     9     5    30 1   
    10     6     7 ar  
    11     6    31 1   
    12     7     8 1   
    13     8     9 1   
    14     8    32 1   
    15     8    33 1   
    16     9    10 1   
    17     9    13 1   
    18     9    34 1   
    19    10    11 1   
    20    10    12 1   
    21    13    14 1   
    22    13    35 1   
    23    14    15 2   
    24    14    16 1   
    25    16    17 ar  
    26    16    27 ar  
    27    17    18 ar  
    28    18    19 1   
    29    18    25 ar  
    30    19    20 2   
    31    20    21 1   
    32    20    22 1   
    33    21    36 1   
    34    21    37 1   
    35    22    23 1   
    36    22    38 1   
    37    23    24 2   
    38    23    25 1   
    39    25    26 ar  
    40    26    27 ar  
    41    27    39 1   
@<TRIPOS>SUBSTRUCTURE
     1 IEZ         1 TEMP              0 ****  ****    0 ROOT
