@<TRIPOS>MOLECULE
IF2
   46    49     1     0     0
SMALL
No Charge or Current Charge


@<TRIPOS>ATOM
      1 C02         94.3820   -13.9990     6.5240 c5         1 IF2       0.243300
      2 C04         92.1520   -14.8540     6.2630 c5         1 IF2      -0.096900
      3 C05         92.2580   -14.3850     7.7370 c5         1 IF2       0.243300
      4 C06         92.5750    -9.3110    13.1890 ca         1 IF2       0.315300
      5 C07         93.9580   -11.8610    10.5670 cc         1 IF2       0.450800
      6 C13         93.5670   -11.2970    11.9090 c3         1 IF2      -0.108700
      7 C15         93.4900    -8.5090    13.9420 ca         1 IF2       0.325300
      8 C17         91.9240    -8.3050    15.6340 ca         1 IF2       0.230000
      9 C18         91.0070    -9.1120    14.8810 ca         1 IF2       0.225000
     10 C20         91.5290    -7.8140    16.8930 ca         1 IF2      -0.077000
     11 C21         90.2570    -8.1020    17.4150 ca         1 IF2      -0.101000
     12 C22         89.3600    -8.8900    16.6790 ca         1 IF2      -0.103000
     13 C23         89.7360    -9.3890    15.4210 ca         1 IF2      -0.073000
     14 C24         94.8860    -8.1610    13.4410 c3         1 IF2      -0.145400
     15 N01         93.5710   -13.7010     7.7260 nh         1 IF2      -0.799300
     16 C03         93.6260   -15.2260     5.9510 c5         1 IF2      -0.096900
     17 N08         93.2250   -12.6840     9.8450 nd         1 IF2      -0.749000
     18 C09         94.0060   -12.8770     8.7410 cd         1 IF2       0.810900
     19 N10         95.1640   -12.2520     8.6990 nc         1 IF2      -0.617800
     20 N11         95.1320   -11.5900     9.8870 na         1 IF2      -0.063700
     21 C12         96.2430   -10.7190    10.3100 c3         1 IF2       0.078900
     22 C14         92.9130    -9.8950    11.8190 c3         1 IF2      -0.125700
     23 N16         93.1640    -8.0070    15.1620 nb         1 IF2      -0.639000
     24 N19         91.3360    -9.6120    13.6600 nb         1 IF2      -0.630000
     25 H26         94.3690   -13.1540     5.8220 h1         1 IF2       0.048700
     26 H25         95.4270   -14.2400     6.7610 h1         1 IF2       0.048700
     27 H30         91.7990   -14.0440     5.6130 hc         1 IF2       0.051450
     28 H29         91.4630   -15.6970     6.1420 hc         1 IF2       0.051450
     29 H31         92.2630   -15.2370     8.4320 h1         1 IF2       0.048700
     30 H32         91.4300   -13.7170     8.0110 h1         1 IF2       0.048700
     31 H37         92.8690   -11.9860    12.4000 hc         1 IF2       0.070700
     32 H36         94.4510   -11.2520    12.5560 hc         1 IF2       0.070700
     33 H40         92.2190    -7.2030    17.4690 ha         1 IF2       0.133000
     34 H41         89.9680    -7.7140    18.3900 ha         1 IF2       0.119000
     35 H42         88.3740    -9.1140    17.0810 ha         1 IF2       0.120000
     36 H43         89.0370    -9.9990    14.8550 ha         1 IF2       0.134000
     37 H45         95.4660    -7.6150    14.1940 hc         1 IF2       0.053700
     38 H46         95.4520    -9.0650    13.1860 hc         1 IF2       0.053700
     39 H44         94.8340    -7.5300    12.5460 hc         1 IF2       0.053700
     40 H28         93.8130   -15.3690     4.8810 hc         1 IF2       0.051450
     41 H27         93.9210   -16.1490     6.4640 hc         1 IF2       0.051450
     42 H33         95.8830    -9.6890    10.4200 h1         1 IF2       0.053367
     43 H34         96.6390   -11.0690    11.2720 h1         1 IF2       0.053367
     44 H35         97.0470   -10.7410     9.5630 h1         1 IF2       0.053367
     45 H39         92.0020    -9.9710    11.2110 hc         1 IF2       0.068200
     46 H38         93.5740    -9.2170    11.2680 hc         1 IF2       0.068200
@<TRIPOS>BOND
     1     1    15 1   
     2     1    16 1   
     3     1    25 1   
     4     1    26 1   
     5     2     3 1   
     6     2    16 1   
     7     2    27 1   
     8     2    28 1   
     9     3    15 1   
    10     3    29 1   
    11     3    30 1   
    12     4     7 ar  
    13     4    22 1   
    14     4    24 ar  
    15     5     6 1   
    16     5    17 2   
    17     5    20 1   
    18     6    22 1   
    19     6    31 1   
    20     6    32 1   
    21     7    14 1   
    22     7    23 ar  
    23     8     9 ar  
    24     8    10 ar  
    25     8    23 ar  
    26     9    13 ar  
    27     9    24 ar  
    28    10    11 ar  
    29    10    33 1   
    30    11    12 ar  
    31    11    34 1   
    32    12    13 ar  
    33    12    35 1   
    34    13    36 1   
    35    14    37 1   
    36    14    38 1   
    37    14    39 1   
    38    15    18 1   
    39    16    40 1   
    40    16    41 1   
    41    17    18 1   
    42    18    19 2   
    43    19    20 1   
    44    20    21 1   
    45    21    42 1   
    46    21    43 1   
    47    21    44 1   
    48    22    45 1   
    49    22    46 1   
@<TRIPOS>SUBSTRUCTURE
     1 IF2         1 TEMP              0 ****  ****    0 ROOT
