@<TRIPOS>MOLECULE
IF2
   46    49     1     0     0
SMALL
abcg2


@<TRIPOS>ATOM
      1 C02         94.2840   -13.9880     6.6420 c5         1 IF2       0.243300
      2 C04         92.0730   -14.8890     6.4280 c5         1 IF2      -0.096900
      3 C05         92.1780   -14.2630     7.8150 c5         1 IF2       0.243300
      4 C06         92.6460    -9.2510    13.1310 ca         1 IF2       0.315300
      5 C07         93.9940   -11.7560    10.5760 cc         1 IF2       0.450800
      6 C13         93.6590   -11.1750    11.9040 c3         1 IF2      -0.108700
      7 C15         93.5280    -8.4710    13.9550 ca         1 IF2       0.325300
      8 C17         91.9290    -8.4250    15.5860 ca         1 IF2       0.230000
      9 C18         91.0650    -9.1900    14.7750 ca         1 IF2       0.225000
     10 C20         91.5030    -8.0210    16.8680 ca         1 IF2      -0.077000
     11 C21         90.2560    -8.3730    17.3140 ca         1 IF2      -0.101000
     12 C22         89.3920    -9.1360    16.5020 ca         1 IF2      -0.103000
     13 C23         89.7860    -9.5400    15.2530 ca         1 IF2      -0.073000
     14 C24         94.8860    -8.0760    13.4700 c3         1 IF2      -0.145400
     15 N01         93.4510   -13.5720     7.7540 nh         1 IF2      -0.799300
     16 C03         93.5270   -15.1840     6.0690 c5         1 IF2      -0.096900
     17 N08         93.1980   -12.5460     9.8780 nd         1 IF2      -0.749000
     18 C09         93.9100   -12.7870     8.7510 cd         1 IF2       0.810900
     19 N10         95.0880   -12.1910     8.7140 nc         1 IF2      -0.617800
     20 N11         95.1200   -11.5370     9.8980 na         1 IF2      -0.063700
     21 C12         96.2640   -10.7300    10.2320 c3         1 IF2       0.078900
     22 C14         93.0700    -9.7590    11.7840 c3         1 IF2      -0.125700
     23 N16         93.1600    -8.0790    15.1430 nb         1 IF2      -0.639000
     24 N19         91.4580    -9.5890    13.5440 nb         1 IF2      -0.630000
     25 H26         94.3900   -13.1870     5.9020 h1         1 IF2       0.048700
     26 H25         95.2900   -14.2550     6.9750 h1         1 IF2       0.048700
     27 H30         91.6460   -14.1710     5.7230 hc         1 IF2       0.051450
     28 H29         91.4410   -15.7760     6.4230 hc         1 IF2       0.051450
     29 H31         92.1700   -15.0330     8.5960 h1         1 IF2       0.048700
     30 H32         91.3570   -13.5760     8.0250 h1         1 IF2       0.048700
     31 H37         92.9240   -11.8280    12.3740 hc         1 IF2       0.070700
     32 H36         94.5370   -11.1680    12.5540 hc         1 IF2       0.070700
     33 H40         92.1760    -7.4340    17.4800 ha         1 IF2       0.133000
     34 H41         89.9270    -8.0640    18.2970 ha         1 IF2       0.119000
     35 H42         88.4120    -9.4040    16.8730 ha         1 IF2       0.120000
     36 H43         89.1340   -10.1270    14.6190 ha         1 IF2       0.134000
     37 H45         95.4230    -7.5460    14.2520 hc         1 IF2       0.053700
     38 H46         95.4780    -8.9440    13.1740 hc         1 IF2       0.053700
     39 H44         94.8190    -7.4250    12.5960 hc         1 IF2       0.053700
     40 H28         93.6920   -15.3050     4.9990 hc         1 IF2       0.051450
     41 H27         93.8530   -16.1020     6.5620 hc         1 IF2       0.051450
     42 H33         96.3390    -9.8780     9.5590 h1         1 IF2       0.053367
     43 H34         96.1720   -10.3630    11.2500 h1         1 IF2       0.053367
     44 H35         97.1720   -11.3250    10.1580 h1         1 IF2       0.053367
     45 H39         92.1930    -9.7940    11.1370 hc         1 IF2       0.068200
     46 H38         93.7920    -9.0890    11.3170 hc         1 IF2       0.068200
@<TRIPOS>BOND
     1     1    15 1   
     2     1    16 1   
     3     1    25 1   
     4     1    26 1   
     5     2     3 1   
     6     2    16 1   
     7     2    27 1   
     8     2    28 1   
     9     3    15 1   
    10     3    29 1   
    11     3    30 1   
    12     4     7 ar  
    13     4    22 1   
    14     4    24 ar  
    15     5     6 1   
    16     5    17 2   
    17     5    20 1   
    18     6    22 1   
    19     6    31 1   
    20     6    32 1   
    21     7    14 1   
    22     7    23 ar  
    23     8     9 ar  
    24     8    10 ar  
    25     8    23 ar  
    26     9    13 ar  
    27     9    24 ar  
    28    10    11 ar  
    29    10    33 1   
    30    11    12 ar  
    31    11    34 1   
    32    12    13 ar  
    33    12    35 1   
    34    13    36 1   
    35    14    37 1   
    36    14    38 1   
    37    14    39 1   
    38    15    18 1   
    39    16    40 1   
    40    16    41 1   
    41    17    18 1   
    42    18    19 2   
    43    19    20 1   
    44    20    21 1   
    45    21    42 1   
    46    21    43 1   
    47    21    44 1   
    48    22    45 1   
    49    22    46 1   
@<TRIPOS>SUBSTRUCTURE
     1 IF2         1 TEMP              0 ****  ****    0 ROOT
