@<TRIPOS>MOLECULE
IF3
   26    27     1     0     0
SMALL
bcc


@<TRIPOS>ATOM
      1 C10         18.5410    30.3410     6.3940 c3         1 IF3       0.237100
      2 C01         18.2490    24.8330     3.3600 c3         1 IF3       0.226100
      3 C03         16.8550    26.8260     3.6600 ca         1 IF3       0.809200
      4 C04         15.6710    27.5560     3.4120 ca         1 IF3      -0.276200
      5 C05         15.5910    28.7930     4.0270 ca         1 IF3       0.492800
      6 C07         17.5720    28.5860     4.9740 ca         1 IF3       0.965900
      7 C12         13.8060    28.3600     2.8440 cc         1 IF3       0.384700
      8 N02         17.0630    25.6160     3.1280 nu         1 IF3      -0.864900
      9 N06         16.5010    29.3610     4.8150 nb         1 IF3      -0.819000
     10 N08         17.7840    27.3640     4.4420 nb         1 IF3      -0.884000
     11 N09         18.5690    29.0550     5.7510 nu         1 IF3      -0.877900
     12 N11         14.3840    29.3000     3.6530 na         1 IF3      -0.257000
     13 N13         14.5420    27.3010     2.6740 nd         1 IF3      -0.543100
     14 H1          19.4800    30.4790     6.9230 h1         1 IF3       0.036700
     15 H2          18.4320    31.1570     5.6760 h1         1 IF3       0.036700
     16 H3          17.7280    30.4240     7.1180 h1         1 IF3       0.036700
     17 H4          18.1580    23.9030     2.8060 h1         1 IF3       0.040033
     18 H5          19.1480    25.3480     3.0180 h1         1 IF3       0.040033
     19 H6          18.3790    24.5920     4.4160 h1         1 IF3       0.040033
     20 H7          12.8310    28.5240     2.4100 h5         1 IF3       0.060800
     21 H8          14.4820    31.3900     3.7030 h1         1 IF3       0.051700
     22 H9          12.8590    30.6990     3.5860 h1         1 IF3       0.051700
     23 H10         13.7330    30.6400     5.1210 h1         1 IF3       0.051700
     24 H11         16.3360    25.2310     2.5500 hn         1 IF3       0.459800
     25 H12         19.3770    28.4680     5.8580 hn         1 IF3       0.451800
     26 C14         13.8390    30.5790     4.0400 c3         1 IF3       0.046600
@<TRIPOS>BOND
     1     1    11 1   
     2     1    14 1   
     3     1    15 1   
     4     1    16 1   
     5     2     8 1   
     6     2    17 1   
     7     2    18 1   
     8     2    19 1   
     9     3     4 ar  
    10     3     8 1   
    11     3    10 ar  
    12     4     5 ar  
    13     4    13 1   
    14     5     9 ar  
    15     5    12 1   
    16     6     9 ar  
    17     6    10 ar  
    18     6    11 1   
    19     7    12 1   
    20     7    13 2   
    21     7    20 1   
    22     8    24 1   
    23    11    25 1   
    24    12    26 1   
    25    21    26 1   
    26    22    26 1   
    27    23    26 1   
@<TRIPOS>SUBSTRUCTURE
     1 IF3         1 TEMP              0 ****  ****    0 ROOT
