@<TRIPOS>MOLECULE
IF3
   26    27     1     0     0
SMALL
No Charge or Current Charge


@<TRIPOS>ATOM
      1 C10         18.6330    30.4120     6.4840 c3         1 IF3       0.237100
      2 C01         18.2380    24.7420     3.3020 c3         1 IF3       0.226100
      3 C03         16.8670    26.8790     3.6970 ca         1 IF3       0.480900
      4 C04         15.6810    27.5980     3.4460 ca         1 IF3      -0.145600
      5 C05         15.5450    28.8340     4.0230 ca         1 IF3       0.164500
      6 C07         17.5930    28.6100     4.9890 ca         1 IF3       0.439900
      7 C12         13.7480    28.3030     2.7930 cc         1 IF3       0.384700
      8 N02         17.0680    25.6220     3.1440 nu         1 IF3      -0.920100
      9 N06         16.4940    29.3730     4.8070 nb         1 IF3      -0.293000
     10 N08         17.8350    27.3910     4.4770 nb         1 IF3      -0.358000
     11 N09         18.6040    29.1130     5.7870 nu         1 IF3      -0.933100
     12 N11         14.3240    29.2780     3.6090 na         1 IF3      -0.286300
     13 N13         14.5680    27.2410     2.6700 nd         1 IF3      -0.543100
     14 H1          19.5720    30.5280     7.0410 h1         1 IF3       0.036700
     15 H2          18.5540    31.2370     5.7630 h1         1 IF3       0.036700
     16 H3          17.7980    30.4880     7.1930 h1         1 IF3       0.036700
     17 H4          18.0980    23.8100     2.7390 h1         1 IF3       0.040033
     18 H5          19.1460    25.2380     2.9300 h1         1 IF3       0.040033
     19 H6          18.3890    24.4880     4.3600 h1         1 IF3       0.040033
     20 H7          12.7710    28.4220     2.3390 h5         1 IF3       0.060800
     21 H8          14.4420    31.3840     3.6600 h1         1 IF3       0.051700
     22 H9          12.7830    30.7240     3.5520 h1         1 IF3       0.051700
     23 H10         13.6830    30.6320     5.0950 h1         1 IF3       0.051700
     24 H11         16.2910    25.2980     2.5630 hn         1 IF3       0.515000
     25 H12         19.4130    28.4990     5.8930 hn         1 IF3       0.507000
     26 C14         13.7740    30.5840     4.0030 c3         1 IF3       0.075900
@<TRIPOS>BOND
     1     1    11 1   
     2     1    14 1   
     3     1    15 1   
     4     1    16 1   
     5     2     8 1   
     6     2    17 1   
     7     2    18 1   
     8     2    19 1   
     9     3     4 ar  
    10     3     8 1   
    11     3    10 ar  
    12     4     5 ar  
    13     4    13 1   
    14     5     9 ar  
    15     5    12 1   
    16     6     9 ar  
    17     6    10 ar  
    18     6    11 1   
    19     7    12 1   
    20     7    13 2   
    21     7    20 1   
    22     8    24 1   
    23    11    25 1   
    24    12    26 1   
    25    21    26 1   
    26    22    26 1   
    27    23    26 1   
@<TRIPOS>SUBSTRUCTURE
     1 IF3         1 TEMP              0 ****  ****    0 ROOT
