@<TRIPOS>MOLECULE
IF4
   36    38     1     0     0
SMALL
abcg2


@<TRIPOS>ATOM
      1 N            4.9450   -24.7070   -12.6470 ns         1 IF4      -0.428900
      2 CA           5.2920   -23.9170   -13.7970 c3         1 IF4      -0.022000
      3 C            5.4100   -24.8520   -15.0440 c          1 IF4       0.726000
      4 O            5.5840   -24.2670   -16.1210 o          1 IF4      -0.704500
      5 CAL          4.5570   -24.1980   -11.4820 c          1 IF4       0.486600
      6 CAQ          6.5840   -23.1580   -13.6190 ca         1 IF4      -0.022300
      7 CAS          7.9350   -21.2020   -14.0590 ca         1 IF4      -0.123000
      8 CAR          6.7360   -21.8910   -14.1750 ca         1 IF4      -0.093500
      9 CAT          9.0050   -21.7740   -13.3830 ca         1 IF4      -0.139000
     10 CAU          8.8640   -23.0380   -12.8260 ca         1 IF4      -0.123000
     11 CAV          7.6630   -23.7250   -12.9460 ca         1 IF4      -0.093500
     12 OXT          5.3270   -26.0750   -14.8280 o          1 IF4      -0.704500
     13 OAO          4.4640   -23.0040   -11.2300 o          1 IF4      -0.635100
     14 C7           4.2150   -25.2260   -10.4350 ca         1 IF4       0.049500
     15 N8           4.3140   -26.4970   -10.7510 nb         1 IF4      -0.100000
     16 C8A          4.0050   -27.4050    -9.8160 ca         1 IF4       0.323000
     17 N1           4.1040   -28.7060   -10.1570 nc         1 IF4      -0.755700
     18 C2           3.8000   -29.5890    -9.2430 cd         1 IF4       0.740800
     19 N2           3.8810   -30.8870    -9.5190 nv         1 IF4      -1.063200
     20 N3           3.4010   -29.2520    -7.9780 ns         1 IF4      -0.464400
     21 C4           3.2620   -27.9580    -7.5210 c          1 IF4       0.493500
     22 O4           2.9030   -27.7140    -6.3910 o          1 IF4      -0.509000
     23 C4A          3.5960   -26.9610    -8.5440 ca         1 IF4       0.142500
     24 N5           3.4990   -25.6770    -8.2310 nb         1 IF4      -0.584000
     25 C6           3.8040   -24.8010    -9.1640 ca         1 IF4       0.285900
     26 H1           4.9580   -25.7110   -12.7830 hn         1 IF4       0.372500
     27 H2           4.4920   -23.1960   -13.9990 h1         1 IF4       0.059700
     28 H3           8.0330   -20.2150   -14.4930 ha         1 IF4       0.089500
     29 H4           5.9020   -21.4340   -14.6960 ha         1 IF4       0.113000
     30 H5           9.9410   -21.2370   -13.2890 ha         1 IF4       0.087000
     31 H6           9.6910   -23.4930   -12.2970 ha         1 IF4       0.089500
     32 H7           7.5660   -24.7090   -12.5030 ha         1 IF4       0.113000
     33 H9           4.1380   -31.1690   -10.4500 hn         1 IF4       0.509500
     34 H10          3.5920   -31.6020    -8.8730 hn         1 IF4       0.509500
     35 H11          3.1930   -29.9870    -7.3120 hn         1 IF4       0.315500
     36 H12          3.7270   -23.7500    -8.9190 h4         1 IF4       0.057100
@<TRIPOS>BOND
     1     1     2 1   
     2     1     5 1   
     3     1    26 1   
     4     2     3 1   
     5     2     6 1   
     6     2    27 1   
     7     3     4 1   
     8     3    12 1   
     9     5    13 2   
    10     5    14 1   
    11     6     8 ar  
    12     6    11 ar  
    13     7     8 ar  
    14     7     9 ar  
    15     7    28 1   
    16     8    29 1   
    17     9    10 ar  
    18     9    30 1   
    19    10    11 ar  
    20    10    31 1   
    21    11    32 1   
    22    14    15 ar  
    23    14    25 ar  
    24    15    16 ar  
    25    16    17 1   
    26    16    23 ar  
    27    17    18 2   
    28    18    19 1   
    29    18    20 1   
    30    19    33 1   
    31    19    34 1   
    32    20    21 1   
    33    20    35 1   
    34    21    22 2   
    35    21    23 1   
    36    23    24 ar  
    37    24    25 ar  
    38    25    36 1   
@<TRIPOS>SUBSTRUCTURE
     1 IF4         1 TEMP              0 ****  ****    0 ROOT
