@<TRIPOS>MOLECULE
IF4
   36    38     1     0     0
SMALL
No Charge or Current Charge


@<TRIPOS>ATOM
      1 N            4.9100   -24.6970   -12.7560 ns         1 IF4      -0.428900
      2 CA           5.3200   -23.8930   -13.9320 c3         1 IF4      -0.022000
      3 C            5.3570   -24.7680   -15.2220 c          1 IF4       0.726000
      4 O            5.1010   -24.2310   -16.2910 o          1 IF4      -0.704500
      5 CAL          4.3660   -24.1880   -11.5910 c          1 IF4       0.486600
      6 CAQ          6.6590   -23.1950   -13.7000 ca         1 IF4      -0.022300
      7 CAS          7.9780   -21.1430   -13.5620 ca         1 IF4      -0.123000
      8 CAR          6.7490   -21.7900   -13.7770 ca         1 IF4      -0.093500
      9 CAT          9.1270   -21.8950   -13.2680 ca         1 IF4      -0.139000
     10 CAU          9.0460   -23.2940   -13.1870 ca         1 IF4      -0.123000
     11 CAV          7.8170   -23.9420   -13.4020 ca         1 IF4      -0.093500
     12 OXT          5.6170   -25.9610   -15.1120 o          1 IF4      -0.704500
     13 OAO          4.1580   -22.9890   -11.4560 o          1 IF4      -0.635100
     14 C7           4.0470   -25.1910   -10.5100 ca         1 IF4       0.049500
     15 N8           4.3040   -26.5040   -10.7290 nb         1 IF4      -0.100000
     16 C8A          4.0220   -27.4110    -9.7640 ca         1 IF4       0.323000
     17 N1           4.3010   -28.7760   -10.0210 nc         1 IF4      -0.755700
     18 C2           3.9850   -29.5490    -9.0170 cd         1 IF4       0.740800
     19 N2           4.2270   -30.8220    -9.2320 nv         1 IF4      -1.063200
     20 N3           3.4550   -29.2280    -7.8310 ns         1 IF4      -0.464400
     21 C4           3.1490   -27.9590    -7.4730 c          1 IF4       0.493500
     22 O4           2.6710   -27.7070    -6.3740 o          1 IF4      -0.509000
     23 C4A          3.4560   -26.9380    -8.5370 ca         1 IF4       0.142500
     24 N5           3.1900   -25.6180    -8.3000 nb         1 IF4      -0.584000
     25 C6           3.4900   -24.7530    -9.2950 ca         1 IF4       0.285900
     26 H1           5.0370   -25.7040   -12.8060 hn         1 IF4       0.372500
     27 H2           4.5470   -23.1330   -14.1000 h1         1 IF4       0.059700
     28 H3           8.0390   -20.0590   -13.6230 ha         1 IF4       0.089500
     29 H4           5.8640   -21.1990   -14.0020 ha         1 IF4       0.113000
     30 H5          10.0780   -21.3940   -13.1020 ha         1 IF4       0.087000
     31 H6           9.9350   -23.8780   -12.9590 ha         1 IF4       0.089500
     32 H7           7.7650   -25.0270   -13.3370 ha         1 IF4       0.113000
     33 H9           4.4480   -31.0150   -10.2000 hn         1 IF4       0.509500
     34 H10          3.6000   -31.4880    -8.7980 hn         1 IF4       0.509500
     35 H11          3.2880   -29.9450    -7.1440 hn         1 IF4       0.315500
     36 H12          3.2800   -23.7010    -9.1080 h4         1 IF4       0.057100
@<TRIPOS>BOND
     1     1     2 1   
     2     1     5 1   
     3     1    26 1   
     4     2     3 1   
     5     2     6 1   
     6     2    27 1   
     7     3     4 1   
     8     3    12 1   
     9     5    13 2   
    10     5    14 1   
    11     6     8 ar  
    12     6    11 ar  
    13     7     8 ar  
    14     7     9 ar  
    15     7    28 1   
    16     8    29 1   
    17     9    10 ar  
    18     9    30 1   
    19    10    11 ar  
    20    10    31 1   
    21    11    32 1   
    22    14    15 ar  
    23    14    25 ar  
    24    15    16 ar  
    25    16    17 1   
    26    16    23 ar  
    27    17    18 2   
    28    18    19 1   
    29    18    20 1   
    30    19    33 1   
    31    19    34 1   
    32    20    21 1   
    33    20    35 1   
    34    21    22 2   
    35    21    23 1   
    36    23    24 ar  
    37    24    25 ar  
    38    25    36 1   
@<TRIPOS>SUBSTRUCTURE
     1 IF4         1 TEMP              0 ****  ****    0 ROOT
