@<TRIPOS>MOLECULE
IF5
   49    53     1     0     0
SMALL
No Charge or Current Charge


@<TRIPOS>ATOM
      1 C10         15.7610    38.6510   -15.5670 ca         1 IF5       0.354300
      2 C11         16.1130    40.1180   -15.4850 cx         1 IF5      -0.192000
      3 C13         15.1100    41.1910   -15.1060 cx         1 IF5      -0.110900
      4 C15          9.9620    37.0670   -10.9180 cc         1 IF5       0.254900
      5 C16         11.8670    39.8360   -11.6960 ca         1 IF5       0.008800
      6 C20         16.1020    36.4230   -16.4810 ca         1 IF5      -0.153000
      7 C21         15.3820    33.3940   -16.0840 ca         1 IF5       0.202000
      8 C22         16.4520    37.7850   -16.4340 ca         1 IF5      -0.089000
      9 C23         16.5900    31.0850   -16.8050 ca         1 IF5       0.090900
     10 C24         16.7910    33.2790   -16.1560 ca         1 IF5       0.066900
     11 C25         14.6430    32.2280   -16.3870 ca         1 IF5       0.066900
     12 C26         11.2830    40.8140   -12.5240 ca         1 IF5      -0.104000
     13 C27         13.1180    40.0890   -11.0970 ca         1 IF5      -0.104000
     14 C28         11.9440    42.0340   -12.7530 ca         1 IF5      -0.101500
     15 C1          11.6850    37.5250   -12.2450 cd         1 IF5       0.017600
     16 C2          14.3950    36.8930   -14.8200 ca         1 IF5       0.217500
     17 N3          11.2270    38.6130   -11.4970 na         1 IF5       0.178000
     18 N4          14.7510    38.2190   -14.7810 nb         1 IF5      -0.667000
     19 C5          13.2190    36.4710   -13.9350 c          1 IF5       0.532600
     20 N6          12.7290    37.5050   -13.1580 ns         1 IF5      -0.374100
     21 C7          15.0720    35.9410   -15.6490 ca         1 IF5       0.340000
     22 N8          10.1480    38.3530   -10.6720 nd         1 IF5      -0.509800
     23 C9          10.8580    36.5160   -11.8580 cc         1 IF5      -0.238000
     24 N12         14.7210    34.5740   -15.6840 nu         1 IF5      -0.971000
     25 C14         16.2340    40.8450   -14.1600 cx         1 IF5      -0.110900
     26 O17         12.7360    35.3410   -13.9160 o          1 IF5      -0.608100
     27 N18         17.3970    32.1280   -16.5200 nb         1 IF5      -0.149500
     28 N19         15.2410    31.0740   -16.7530 nb         1 IF5      -0.149500
     29 C29         13.7780    41.3090   -11.3260 ca         1 IF5      -0.101500
     30 C30         13.1920    42.2810   -12.1550 ca         1 IF5      -0.106000
     31 H1          16.8350    40.3980   -16.2480 hc         1 IF5       0.085700
     32 H2          15.1640    42.1430   -15.6290 hc         1 IF5       0.076950
     33 H3          14.1040    40.8890   -14.8250 hc         1 IF5       0.076950
     34 H4           9.1620    36.5520   -10.4030 h4         1 IF5       0.038100
     35 H5          16.6170    35.7630   -17.1700 ha         1 IF5       0.134000
     36 H6          17.2480    38.1680   -17.0660 ha         1 IF5       0.129000
     37 H7          17.0750    30.1570   -17.1000 h5         1 IF5       0.055100
     38 H8          17.4490    34.1050   -15.8970 h4         1 IF5       0.032100
     39 H9          13.5550    32.2190   -16.3410 h4         1 IF5       0.032100
     40 H10         10.3200    40.6240   -12.9940 ha         1 IF5       0.131500
     41 H11         13.5770    39.3380   -10.4580 ha         1 IF5       0.131500
     42 H12         11.4920    42.7860   -13.3960 ha         1 IF5       0.119500
     43 H13         13.2460    38.3650   -13.3240 hn         1 IF5       0.363500
     44 H14         10.8560    35.4840   -12.1890 ha         1 IF5       0.168000
     45 H15         13.8170    34.4060   -15.2130 hn         1 IF5       0.543000
     46 H16         15.9800    40.3040   -13.2520 hc         1 IF5       0.076950
     47 H17         17.0420    41.5650   -14.0480 hc         1 IF5       0.076950
     48 H18         14.7450    41.5000   -10.8640 ha         1 IF5       0.119500
     49 H19         13.7050    43.2230   -12.3350 ha         1 IF5       0.117000
@<TRIPOS>BOND
     1     1     2 1   
     2     1     8 ar  
     3     1    18 ar  
     4     2     3 1   
     5     2    25 1   
     6     2    31 1   
     7     3    25 1   
     8     3    32 1   
     9     3    33 1   
    10     4    22 2   
    11     4    23 1   
    12     4    34 1   
    13     5    12 ar  
    14     5    13 ar  
    15     5    17 1   
    16     6     8 ar  
    17     6    21 ar  
    18     6    35 1   
    19     7    10 ar  
    20     7    11 ar  
    21     7    24 1   
    22     8    36 1   
    23     9    27 ar  
    24     9    28 ar  
    25     9    37 1   
    26    10    27 ar  
    27    10    38 1   
    28    11    28 ar  
    29    11    39 1   
    30    12    14 ar  
    31    12    40 1   
    32    13    29 ar  
    33    13    41 1   
    34    14    30 ar  
    35    14    42 1   
    36    15    17 1   
    37    15    20 1   
    38    15    23 2   
    39    16    18 ar  
    40    16    19 1   
    41    16    21 ar  
    42    17    22 1   
    43    19    20 1   
    44    19    26 2   
    45    20    43 1   
    46    21    24 1   
    47    23    44 1   
    48    24    45 1   
    49    25    46 1   
    50    25    47 1   
    51    29    30 ar  
    52    29    48 1   
    53    30    49 1   
@<TRIPOS>SUBSTRUCTURE
     1 IF5         1 TEMP              0 ****  ****    0 ROOT
