@<TRIPOS>MOLECULE
IF5
   49    53     1     0     0
SMALL
bcc


@<TRIPOS>ATOM
      1 C10         15.8390    38.5070   -15.4940 ca         1 IF5       0.419600
      2 C11         16.2500    39.9230   -15.3900 cx         1 IF5      -0.192000
      3 C13         15.2540    40.9790   -14.9960 cx         1 IF5      -0.110900
      4 C15         10.0850    37.1320   -10.9750 cc         1 IF5       0.320200
      5 C16         11.8730    39.9530   -11.8480 ca         1 IF5       0.008800
      6 C20         16.0890    36.3130   -16.4340 ca         1 IF5      -0.171000
      7 C21         15.3580    33.4280   -16.0760 ca         1 IF5      -0.067000
      8 C22         16.4690    37.6310   -16.3870 ca         1 IF5      -0.172300
      9 C23         16.5720    31.2100   -16.9440 ca         1 IF5       0.616900
     10 C24         16.7450    33.2810   -16.0490 ca         1 IF5       0.395200
     11 C25         14.6500    32.3300   -16.5680 ca         1 IF5       0.395200
     12 C26         11.0150    40.9410   -12.3160 ca         1 IF5      -0.122000
     13 C27         13.1930    40.2520   -11.5340 ca         1 IF5      -0.122000
     14 C28         11.4860    42.2340   -12.4730 ca         1 IF5      -0.119500
     15 C1          11.8240    37.4920   -12.2600 cd         1 IF5       0.068300
     16 C2          14.4740    36.7940   -14.7530 ca         1 IF5       0.282800
     17 N3          11.3820    38.6380   -11.6780 na         1 IF5       0.127300
     18 N4          14.8630    38.0670   -14.7290 nb         1 IF5      -0.667000
     19 C5          13.3320    36.4610   -13.8560 c          1 IF5       0.599600
     20 N6          12.8860    37.5180   -13.1360 ns         1 IF5      -0.441100
     21 C7          15.0800    35.8330   -15.5820 ca         1 IF5       0.136300
     22 N8          10.3110    38.4230   -10.8960 nd         1 IF5      -0.509800
     23 C9          11.0000    36.4790   -11.8170 cc         1 IF5      -0.321300
     24 N12         14.6680    34.5260   -15.5970 nu         1 IF5      -0.639000
     25 C14         16.3180    40.5810   -14.0360 cx         1 IF5      -0.110900
     26 O17         12.8390    35.3440   -13.7870 o          1 IF5      -0.608100
     27 N18         17.3440    32.1840   -16.4900 nb         1 IF5      -0.675500
     28 N19         15.2480    31.2300   -16.9910 nb         1 IF5      -0.675500
     29 C29         13.6600    41.5480   -11.7100 ca         1 IF5      -0.119500
     30 C30         12.8090    42.5390   -12.1770 ca         1 IF5      -0.124000
     31 H1          17.0090    40.2170   -16.1050 hc         1 IF5       0.085700
     32 H2          15.3300    41.9410   -15.4850 hc         1 IF5       0.076950
     33 H3          14.2420    40.6540   -14.7900 hc         1 IF5       0.076950
     34 H4           9.2700    36.6900   -10.4220 h4         1 IF5       0.038100
     35 H5          16.5620    35.6540   -17.1500 ha         1 IF5       0.152000
     36 H6          17.2460    37.9920   -17.0480 ha         1 IF5       0.147000
     37 H7          17.0660    30.3150   -17.3040 h5         1 IF5       0.055100
     38 H8          17.3870    34.0590   -15.6510 h4         1 IF5       0.032100
     39 H9          13.5650    32.3550   -16.6030 h4         1 IF5       0.032100
     40 H10          9.9890    40.6950   -12.5560 ha         1 IF5       0.149500
     41 H11         13.8500    39.4850   -11.1410 ha         1 IF5       0.149500
     42 H12         10.8200    43.0050   -12.8370 ha         1 IF5       0.137500
     43 H13         13.3720    38.3910   -13.3160 hn         1 IF5       0.363500
     44 H14         11.0400    35.4340   -12.0610 ha         1 IF5       0.186000
     45 H15         13.7980    34.3440   -15.1130 hn         1 IF5       0.487800
     46 H16         16.0310    39.9800   -13.1830 hc         1 IF5       0.076950
     47 H17         17.1380    41.2640   -13.8550 hc         1 IF5       0.076950
     48 H18         14.6890    41.7800   -11.4700 ha         1 IF5       0.137500
     49 H19         13.1750    43.5490   -12.3080 ha         1 IF5       0.135000
@<TRIPOS>BOND
     1     1     2 1   
     2     1     8 ar  
     3     1    18 ar  
     4     2     3 1   
     5     2    25 1   
     6     2    31 1   
     7     3    25 1   
     8     3    32 1   
     9     3    33 1   
    10     4    22 2   
    11     4    23 1   
    12     4    34 1   
    13     5    12 ar  
    14     5    13 ar  
    15     5    17 1   
    16     6     8 ar  
    17     6    21 ar  
    18     6    35 1   
    19     7    10 ar  
    20     7    11 ar  
    21     7    24 1   
    22     8    36 1   
    23     9    27 ar  
    24     9    28 ar  
    25     9    37 1   
    26    10    27 ar  
    27    10    38 1   
    28    11    28 ar  
    29    11    39 1   
    30    12    14 ar  
    31    12    40 1   
    32    13    29 ar  
    33    13    41 1   
    34    14    30 ar  
    35    14    42 1   
    36    15    17 1   
    37    15    20 1   
    38    15    23 2   
    39    16    18 ar  
    40    16    19 1   
    41    16    21 ar  
    42    17    22 1   
    43    19    20 1   
    44    19    26 2   
    45    20    43 1   
    46    21    24 1   
    47    23    44 1   
    48    24    45 1   
    49    25    46 1   
    50    25    47 1   
    51    29    30 ar  
    52    29    48 1   
    53    30    49 1   
@<TRIPOS>SUBSTRUCTURE
     1 IF5         1 TEMP              0 ****  ****    0 ROOT
