@<TRIPOS>MOLECULE
IF7
   22    22     1     0     0
SMALL
bcc


@<TRIPOS>ATOM
      1 O           -2.7410    -1.0730     0.1870 o          1 IF7      -0.658500
      2 C2          -1.5640    -0.7760     0.0080 c          1 IF7       0.674500
      3 C3          -1.2220     0.5260    -0.7080 c6         1 IF7       0.034100
      4 O3          -2.2550     1.4540    -0.5360 oh         1 IF7      -0.599800
      5 C4           0.0860     1.1040    -0.1960 c6         1 IF7       0.151100
      6 O2          -0.0130     1.4310     1.1690 oh         1 IF7      -0.601800
      7 C5           1.1710     0.0540    -0.3830 c6         1 IF7      -0.076700
      8 C6           2.5460     0.6020    -0.0400 c3         1 IF7       0.145400
      9 O1           3.5100    -0.3810    -0.3450 oh         1 IF7      -0.606800
     10 C1           0.8570    -1.1960     0.4310 c6         1 IF7       0.121000
     11 N           -0.5450    -1.5680     0.3510 ns         1 IF7      -0.552900
     12 H3          -1.0910     0.2710    -1.7710 h1         1 IF7       0.065700
     13 H           -0.8000    -2.4350     0.8020 hn         1 IF7       0.319500
     14 HA          -3.0630     0.9510    -0.3630 ho         1 IF7       0.443000
     15 H4           0.3390     1.9900    -0.7970 h1         1 IF7       0.052700
     16 H2          -0.7850     1.9960     1.2840 ho         1 IF7       0.427000
     17 H5           1.1700    -0.2070    -1.4470 hc         1 IF7       0.071700
     18 H61C         2.7150     1.5200    -0.6180 h1         1 IF7       0.033200
     19 H62C         2.5800     0.8780     1.0210 h1         1 IF7       0.033200
     20 H11C         1.4530    -2.0350     0.0740 h1         1 IF7       0.056700
     21 H12C         1.1260    -1.0360     1.4800 h1         1 IF7       0.056700
     22 H1           4.3620    -0.0810    -0.0140 ho         1 IF7       0.410000
@<TRIPOS>BOND
     1     1     2 2   
     2     2     3 1   
     3     2    11 1   
     4     3     4 1   
     5     3     5 1   
     6     3    12 1   
     7     4    14 1   
     8     5     6 1   
     9     5     7 1   
    10     5    15 1   
    11     6    16 1   
    12     7     8 1   
    13     7    10 1   
    14     7    17 1   
    15     8     9 1   
    16     8    18 1   
    17     8    19 1   
    18     9    22 1   
    19    10    11 1   
    20    10    20 1   
    21    10    21 1   
    22    11    13 1   
@<TRIPOS>SUBSTRUCTURE
     1 IF7         1 TEMP              0 ****  ****    0 ROOT
