@<TRIPOS>MOLECULE
IF7
   22    22     1     0     0
SMALL
No Charge or Current Charge


@<TRIPOS>ATOM
      1 O           -2.6950    -1.3670    -0.2500 o          1 IF7      -0.583000
      2 C2          -1.5840    -0.8700    -0.1320 c          1 IF7       0.532000
      3 C3          -1.2890     0.5880    -0.6200 c6         1 IF7       0.057300
      4 O3          -2.3280     1.5170    -0.1960 oh         1 IF7      -0.662000
      5 C4           0.1120     1.1260    -0.2150 c6         1 IF7       0.174300
      6 O2           0.0470     1.6290     1.1250 oh         1 IF7      -0.664000
      7 C5           1.1910     0.0220    -0.3450 c6         1 IF7      -0.076700
      8 C6           2.6200     0.5640    -0.0600 c3         1 IF7       0.168600
      9 O1           3.6270    -0.4160    -0.3450 oh         1 IF7      -0.669000
     10 C1           0.8440    -1.1960     0.5470 c6         1 IF7       0.121000
     11 N           -0.5710    -1.5920     0.4590 ns         1 IF7      -0.485900
     12 H3          -1.2920     0.5080    -1.7170 h1         1 IF7       0.065700
     13 H           -0.8270    -2.5170     0.7820 hn         1 IF7       0.319500
     14 HA          -3.1920     1.0760    -0.3760 ho         1 IF7       0.482000
     15 H4           0.3680     1.9470    -0.9020 h1         1 IF7       0.052700
     16 H2          -0.8810     1.9570     1.1990 ho         1 IF7       0.466000
     17 H5           1.1980    -0.3130    -1.3920 hc         1 IF7       0.071700
     18 H61C         2.7830     1.4570    -0.6790 h1         1 IF7       0.033200
     19 H62C         2.6800     0.8760     0.9920 h1         1 IF7       0.033200
     20 H11C         1.4700    -2.0560     0.2700 h1         1 IF7       0.056700
     21 H12C         1.0600    -0.9550     1.5980 h1         1 IF7       0.056700
     22 H1           4.4970     0.0020    -0.1550 ho         1 IF7       0.449000
@<TRIPOS>BOND
     1     1     2 2   
     2     2     3 1   
     3     2    11 1   
     4     3     4 1   
     5     3     5 1   
     6     3    12 1   
     7     4    14 1   
     8     5     6 1   
     9     5     7 1   
    10     5    15 1   
    11     6    16 1   
    12     7     8 1   
    13     7    10 1   
    14     7    17 1   
    15     8     9 1   
    16     8    18 1   
    17     8    19 1   
    18     9    22 1   
    19    10    11 1   
    20    10    20 1   
    21    10    21 1   
    22    11    13 1   
@<TRIPOS>SUBSTRUCTURE
     1 IF7         1 TEMP              0 ****  ****    0 ROOT
