@<TRIPOS>MOLECULE
IF8
   55    60     1     0     0
SMALL
No Charge or Current Charge


@<TRIPOS>ATOM
      1 C4         -23.5880   -10.8000    -2.7480 ca         1 IF8      -0.150000
      2 C5         -23.3360   -10.8220    -4.1350 ca         1 IF8       0.061800
      3 C6         -23.7700   -11.9210    -4.9160 ca         1 IF8      -0.183600
      4 C8         -22.9270    -9.5630    -6.1610 cc         1 IF8       0.642300
      5 C10        -23.6280   -11.8050    -6.4210 c          1 IF8       0.733100
      6 C17        -20.1100    -7.7360    -3.0220 ca         1 IF8      -0.112000
      7 C20        -21.9220    -8.1010    -8.0000 c5         1 IF8       0.089300
      8 C21        -18.6500    -5.8630    -4.0020 c6         1 IF8      -0.016400
      9 C22        -18.9940    -4.7810    -2.9420 c6         1 IF8      -0.108400
     10 C26        -17.2670    -6.4900    -3.6790 c6         1 IF8      -0.108400
     11 C28        -22.2980    -6.6190    -8.2840 c5         1 IF8      -0.095400
     12 C1         -24.3570   -13.0400    -4.2600 ca         1 IF8       0.057100
     13 C2         -24.5340   -13.0260    -2.8670 ca         1 IF8      -0.125000
     14 C3         -24.1690   -11.9040    -2.1130 ca         1 IF8      -0.064000
     15 N7         -22.7620    -9.7330    -4.7950 na         1 IF8      -0.118400
     16 N9         -23.2160   -10.5780    -6.9540 nd         1 IF8      -0.769100
     17 C11        -21.7690    -8.8600    -4.3720 ca         1 IF8      -0.045200
     18 C12        -21.3980    -8.1000    -5.4690 ca         1 IF8      -0.021200
     19 N13        -22.0950    -8.5290    -6.6000 na         1 IF8      -0.189600
     20 O14        -23.8440   -12.7120    -7.2070 o          1 IF8      -0.524100
     21 Br1        -24.9830   -14.6170    -5.1710 br         1 IF8      -0.048100
     22 C16        -21.1120    -8.7200    -3.1370 ca         1 IF8      -0.086000
     23 C18        -19.7520    -6.9250    -4.1290 ca         1 IF8      -0.057300
     24 C19        -20.3950    -7.1220    -5.3710 ca         1 IF8      -0.107000
     25 C23        -17.8580    -3.7360    -2.8240 c6         1 IF8       0.147800
     26 N24        -16.5620    -4.3910    -2.5200 n7         1 IF8      -0.843400
     27 C25        -16.1790    -5.3980    -3.5400 c6         1 IF8       0.147800
     28 C27        -20.4720    -8.2400    -8.5800 c5         1 IF8      -0.095400
     29 C29        -21.6430    -6.4080    -9.6680 c5         1 IF8      -0.081400
     30 C30        -20.2140    -6.9200    -9.3700 c5         1 IF8      -0.081400
     31 H1         -23.3680    -9.9190    -2.1550 ha         1 IF8       0.125000
     32 H2         -19.5990    -7.6130    -2.0700 ha         1 IF8       0.120000
     33 H3         -22.5800    -8.7200    -8.6270 h1         1 IF8       0.107700
     34 H4         -18.5560    -5.3490    -4.9700 hc         1 IF8       0.054700
     35 H5         -19.9310    -4.2770    -3.2140 hc         1 IF8       0.047450
     36 H6         -19.1630    -5.2460    -1.9610 hc         1 IF8       0.047450
     37 H7         -17.3200    -7.0720    -2.7490 hc         1 IF8       0.047450
     38 H8         -16.9830    -7.1940    -4.4720 hc         1 IF8       0.047450
     39 H9         -21.8940    -5.9270    -7.5370 hc         1 IF8       0.057200
     40 H10        -23.3830    -6.4670    -8.3090 hc         1 IF8       0.057200
     41 H11        -24.9890   -13.8800    -2.3710 ha         1 IF8       0.136000
     42 H12        -24.3500   -11.8860    -1.0400 ha         1 IF8       0.121000
     43 H14        -21.3340    -9.3530    -2.2850 ha         1 IF8       0.126000
     44 H15        -20.1010    -6.5360    -6.2370 ha         1 IF8       0.132000
     45 H16        -17.7760    -3.1750    -3.7680 h1         1 IF8       0.053700
     46 H17        -18.1040    -3.0120    -2.0310 h1         1 IF8       0.053700
     47 H18        -16.6510    -4.8700    -1.6150 hn         1 IF8       0.403000
     48 H20        -15.2220    -5.8650    -3.2590 h1         1 IF8       0.053700
     49 H21        -16.0310    -4.9010    -4.5110 h1         1 IF8       0.053700
     50 H22        -20.4100    -9.1150    -9.2380 hc         1 IF8       0.057200
     51 H23        -19.7140    -8.3890    -7.8030 hc         1 IF8       0.057200
     52 H24        -21.6530    -5.3580    -9.9830 hc         1 IF8       0.048200
     53 H25        -22.1360    -6.9950   -10.4530 hc         1 IF8       0.048200
     54 H26        -19.6320    -7.0880   -10.2840 hc         1 IF8       0.048200
     55 H27        -19.6560    -6.1980    -8.7620 hc         1 IF8       0.048200
@<TRIPOS>BOND
     1     1     2 ar  
     2     1    14 ar  
     3     1    31 1   
     4     2     3 ar  
     5     2    15 1   
     6     3     5 1   
     7     3    12 ar  
     8     4    15 1   
     9     4    16 2   
    10     4    19 1   
    11     5    16 1   
    12     5    20 2   
    13     6    22 ar  
    14     6    23 ar  
    15     6    32 1   
    16     7    11 1   
    17     7    19 1   
    18     7    28 1   
    19     7    33 1   
    20     8     9 1   
    21     8    10 1   
    22     8    23 1   
    23     8    34 1   
    24     9    25 1   
    25     9    35 1   
    26     9    36 1   
    27    10    27 1   
    28    10    37 1   
    29    10    38 1   
    30    11    29 1   
    31    11    39 1   
    32    11    40 1   
    33    12    13 ar  
    34    12    21 1   
    35    13    14 ar  
    36    13    41 1   
    37    14    42 1   
    38    15    17 1   
    39    17    18 ar  
    40    17    22 ar  
    41    18    19 1   
    42    18    24 ar  
    43    22    43 1   
    44    23    24 ar  
    45    24    44 1   
    46    25    26 1   
    47    25    45 1   
    48    25    46 1   
    49    26    27 1   
    50    26    47 1   
    51    27    48 1   
    52    27    49 1   
    53    28    30 1   
    54    28    50 1   
    55    28    51 1   
    56    29    30 1   
    57    29    52 1   
    58    29    53 1   
    59    30    54 1   
    60    30    55 1   
@<TRIPOS>SUBSTRUCTURE
     1 IF8         1 TEMP              0 ****  ****    0 ROOT
