@<TRIPOS>MOLECULE
IF8
   55    60     1     0     0
SMALL
bcc


@<TRIPOS>ATOM
      1 C4         -23.1940   -11.0880    -2.8140 ca         1 IF8      -0.168000
      2 C5         -23.2300   -10.9410    -4.1970 ca         1 IF8       0.061800
      3 C6         -24.0370   -11.7740    -5.0020 ca         1 IF8      -0.183600
      4 C8         -22.6380    -9.7820    -6.1840 cc         1 IF8       0.642300
      5 C10        -24.1070   -11.5220    -6.4730 c          1 IF8       0.733100
      6 C17        -20.0220    -7.7400    -3.0630 ca         1 IF8      -0.130000
      7 C20        -21.7760    -8.2780    -7.9500 c5         1 IF8       0.060000
      8 C21        -18.6410    -5.8670    -4.0540 c6         1 IF8      -0.016400
      9 C22        -19.1040    -4.7520    -3.1120 c6         1 IF8      -0.108400
     10 C26        -17.2670    -6.3800    -3.6130 c6         1 IF8      -0.108400
     11 C28        -22.2970    -6.8480    -8.1360 c5         1 IF8      -0.095400
     12 C1         -24.7580   -12.7870    -4.3490 ca         1 IF8       0.057100
     13 C2         -24.7060   -12.9470    -2.9760 ca         1 IF8      -0.143000
     14 C3         -23.9300   -12.0870    -2.2160 ca         1 IF8      -0.082000
     15 N7         -22.4840    -9.9550    -4.8360 na         1 IF8      -0.118400
     16 N9         -23.3920   -10.4800    -6.9710 nd         1 IF8      -0.769100
     17 C11        -21.5450    -9.0210    -4.3700 ca         1 IF8      -0.045200
     18 C12        -21.1720    -8.2680    -5.4860 ca         1 IF8      -0.021200
     19 N13        -21.8580    -8.7550    -6.5800 na         1 IF8      -0.160300
     20 O14        -24.7880   -12.2070    -7.2160 o          1 IF8      -0.524100
     21 BR1        -25.8580   -14.0360    -5.2420 br         1 IF8      -0.048100
     22 C16        -20.9570    -8.7620    -3.1410 ca         1 IF8      -0.104000
     23 C18        -19.6570    -6.9730    -4.1710 ca         1 IF8      -0.057300
     24 C19        -20.2430    -7.2450    -5.4010 ca         1 IF8      -0.125000
     25 C23        -18.0400    -3.6620    -3.0070 c6         1 IF8       0.147800
     26 N24        -16.7270    -4.1510    -2.6170 n7         1 IF8      -0.788200
     27 C25        -16.2760    -5.2250    -3.4870 c6         1 IF8       0.147800
     28 C27        -20.3460    -8.3000    -8.5470 c5         1 IF8      -0.095400
     29 C29        -21.5700    -6.3820    -9.3920 c5         1 IF8      -0.081400
     30 C30        -20.1520    -6.9230    -9.1980 c5         1 IF8      -0.081400
     31 H1         -22.6150   -10.4310    -2.1910 ha         1 IF8       0.143000
     32 H2         -19.5680    -7.5440    -2.1000 ha         1 IF8       0.138000
     33 H3         -22.4080    -8.9560    -8.5200 h1         1 IF8       0.107700
     34 H4         -18.5220    -5.4260    -5.0510 hc         1 IF8       0.054700
     35 H5         -20.0440    -4.3220    -3.4710 hc         1 IF8       0.047450
     36 H6         -19.3040    -5.1610    -2.1160 hc         1 IF8       0.047450
     37 H7         -17.3510    -6.8890    -2.6470 hc         1 IF8       0.047450
     38 H8         -16.8930    -7.1190    -4.3280 hc         1 IF8       0.047450
     39 H9         -22.0200    -6.2150    -7.2900 hc         1 IF8       0.057200
     40 H10        -23.3840    -6.8200    -8.2200 hc         1 IF8       0.057200
     41 H11        -25.2680   -13.7320    -2.4890 ha         1 IF8       0.154000
     42 H12        -23.9010   -12.2000    -1.1410 ha         1 IF8       0.139000
     43 H14        -21.1770    -9.3210    -2.2470 ha         1 IF8       0.144000
     44 H15        -19.9650    -6.6630    -6.2700 ha         1 IF8       0.150000
     45 H16        -17.9400    -3.1630    -3.9770 h1         1 IF8       0.053700
     46 H17        -18.3550    -2.8960    -2.2950 h1         1 IF8       0.053700
     47 H18        -16.7760    -4.4980    -1.6650 hn         1 IF8       0.347800
     48 H20        -15.3150    -5.5930    -3.1210 h1         1 IF8       0.053700
     49 H21        -16.0880    -4.8010    -4.4800 h1         1 IF8       0.053700
     50 H22        -20.2760    -9.0970    -9.2870 hc         1 IF8       0.057200
     51 H23        -19.5850    -8.5110    -7.7950 hc         1 IF8       0.057200
     52 H24        -21.6000    -5.3000    -9.5210 hc         1 IF8       0.048200
     53 H25        -22.0270    -6.8290   -10.2790 hc         1 IF8       0.048200
     54 H26        -19.5880    -6.9790   -10.1300 hc         1 IF8       0.048200
     55 H27        -19.5960    -6.2600    -8.5300 hc         1 IF8       0.048200
@<TRIPOS>BOND
     1     1     2 ar  
     2     1    14 ar  
     3     1    31 1   
     4     2     3 ar  
     5     2    15 1   
     6     3     5 1   
     7     3    12 ar  
     8     4    15 1   
     9     4    16 2   
    10     4    19 1   
    11     5    16 1   
    12     5    20 2   
    13     6    22 ar  
    14     6    23 ar  
    15     6    32 1   
    16     7    11 1   
    17     7    19 1   
    18     7    28 1   
    19     7    33 1   
    20     8     9 1   
    21     8    10 1   
    22     8    23 1   
    23     8    34 1   
    24     9    25 1   
    25     9    35 1   
    26     9    36 1   
    27    10    27 1   
    28    10    37 1   
    29    10    38 1   
    30    11    29 1   
    31    11    39 1   
    32    11    40 1   
    33    12    13 ar  
    34    12    21 1   
    35    13    14 ar  
    36    13    41 1   
    37    14    42 1   
    38    15    17 1   
    39    17    18 ar  
    40    17    22 ar  
    41    18    19 1   
    42    18    24 ar  
    43    22    43 1   
    44    23    24 ar  
    45    24    44 1   
    46    25    26 1   
    47    25    45 1   
    48    25    46 1   
    49    26    27 1   
    50    26    47 1   
    51    27    48 1   
    52    27    49 1   
    53    28    30 1   
    54    28    50 1   
    55    28    51 1   
    56    29    30 1   
    57    29    52 1   
    58    29    53 1   
    59    30    54 1   
    60    30    55 1   
@<TRIPOS>SUBSTRUCTURE
     1 IF8         1 TEMP              0 ****  ****    0 ROOT
