@<TRIPOS>MOLECULE
IFC
   52    55     1     0     0
SMALL
No Charge or Current Charge


@<TRIPOS>ATOM
      1 C1A         -8.0510     3.1260     0.9530 c3         1 IFC      -0.111400
      2 C1Y         -7.2770     1.9740     0.3840 cc         1 IFC       0.259300
      3 C1Q         -6.3930     1.1590     1.0410 cd         1 IFC      -0.220000
      4 N1S         -7.3490     1.6780    -0.9530 nc         1 IFC      -0.664000
      5 C1L         -6.5120     0.6620    -1.1490 cd         1 IFC       0.411400
      6 N2G         -6.0210     0.2470     0.0760 na         1 IFC      -0.086300
      7 C2C         -4.6820    -0.1420     0.0960 ca         1 IFC       0.004800
      8 C1M         -3.6520     0.8010    -0.0910 ca         1 IFC      -0.047000
      9 C1P         -4.3610    -1.4930     0.3010 ca         1 IFC      -0.060000
     10 C2D         -3.0150    -1.9150     0.3250 ca         1 IFC      -0.186300
     11 C2H         -2.6560    -3.3910     0.5380 c3         1 IFC       0.360300
     12 F1F         -2.3680    -3.9990    -0.6340 f          1 IFC      -0.107667
     13 F1G         -1.5750    -3.5380     1.3370 f          1 IFC      -0.107667
     14 F1E         -3.6580    -4.0960     1.1120 f          1 IFC      -0.107667
     15 C1O         -1.9910    -0.9630     0.1270 ca         1 IFC      -0.049000
     16 C2B         -2.2950     0.4060    -0.0800 ca         1 IFC      -0.142600
     17 C1W         -1.2170     1.4560    -0.2900 c          1 IFC       0.620700
     18 O1C         -1.5110     2.6310    -0.4780 o          1 IFC      -0.567100
     19 N1T          0.0950     0.9960    -0.2510 ns         1 IFC      -0.137000
     20 C2A          1.3500     1.6490    -0.4140 ca         1 IFC      -0.012000
     21 C1N          2.5100     0.8760    -0.2190 ca         1 IFC      -0.161000
     22 C1K          1.4870     3.0080    -0.7600 ca         1 IFC      -0.131000
     23 C1J          2.7620     3.5780    -0.8970 ca         1 IFC      -0.071000
     24 C1Z          3.9200     2.8050    -0.6980 ca         1 IFC      -0.119300
     25 C1B          5.2910     3.4620    -0.8560 c3         1 IFC      -0.045800
     26 C2E          3.7990     1.4360    -0.3630 ca         1 IFC      -0.012000
     27 N1U          4.9900     0.6790    -0.1640 ns         1 IFC      -0.145000
     28 C1X          5.2270    -0.6830    -0.0140 c          1 IFC       0.537600
     29 O1D          4.3580    -1.5480    -0.0680 o          1 IFC      -0.561100
     30 C2F          6.6650    -0.9850     0.2080 cc         1 IFC       0.098500
     31 C1I          7.2300    -2.2110     0.3860 cd         1 IFC      -0.165000
     32 C1H          8.6060    -1.9810     0.5560 cd         1 IFC       0.249900
     33 N1R          8.9170    -0.6970     0.4940 nc         1 IFC      -0.338300
     34 O1V          7.6550    -0.0300     0.2660 os         1 IFC      -0.079700
     35 H1A         -7.6980     4.0760     0.5340 hc         1 IFC       0.046367
     36 H1AA        -9.1190     3.0290     0.7280 hc         1 IFC       0.046367
     37 H1AB        -7.9380     3.1740     2.0420 hc         1 IFC       0.046367
     38 H1Q         -6.0340     1.1570     2.0630 h4         1 IFC       0.162000
     39 H1L         -6.2290     0.2030    -2.0890 h5         1 IFC       0.059100
     40 H1M         -3.9140     1.8460    -0.2460 ha         1 IFC       0.155000
     41 H1P         -5.1680    -2.2110     0.4380 ha         1 IFC       0.146000
     42 H1O         -0.9600    -1.3090     0.1340 ha         1 IFC       0.139000
     43 HN1T         0.1790     0.0060    -0.0730 hn         1 IFC       0.159000
     44 H1N          2.3880    -0.1650     0.0580 ha         1 IFC       0.129000
     45 H1K          0.6230     3.6430    -0.9290 ha         1 IFC       0.150000
     46 H1J          2.8460     4.6300    -1.1610 ha         1 IFC       0.119000
     47 H1B          5.8580     3.4230     0.0820 hc         1 IFC       0.045033
     48 H1BA         5.8830     2.9610    -1.6320 hc         1 IFC       0.045033
     49 H1BB         5.2070     4.5170    -1.1420 hc         1 IFC       0.045033
     50 HN1U         5.8270     1.2470    -0.1190 hn         1 IFC       0.176000
     51 H1I          6.7230    -3.1690     0.3940 ha         1 IFC       0.172000
     52 H1H          9.3880    -2.7100     0.7230 h4         1 IFC       0.053100
@<TRIPOS>BOND
     1     1     2 1   
     2     1    35 1   
     3     1    36 1   
     4     1    37 1   
     5     2     3 2   
     6     2     4 1   
     7     3     6 1   
     8     3    38 1   
     9     4     5 2   
    10     5     6 1   
    11     5    39 1   
    12     6     7 1   
    13     7     8 ar  
    14     7     9 ar  
    15     8    16 ar  
    16     8    40 1   
    17     9    10 ar  
    18     9    41 1   
    19    10    11 1   
    20    10    15 ar  
    21    11    12 1   
    22    11    13 1   
    23    11    14 1   
    24    15    16 ar  
    25    15    42 1   
    26    16    17 1   
    27    17    18 2   
    28    17    19 1   
    29    19    20 1   
    30    19    43 1   
    31    20    21 ar  
    32    20    22 ar  
    33    21    26 ar  
    34    21    44 1   
    35    22    23 ar  
    36    22    45 1   
    37    23    24 ar  
    38    23    46 1   
    39    24    25 1   
    40    24    26 ar  
    41    25    47 1   
    42    25    48 1   
    43    25    49 1   
    44    26    27 1   
    45    27    28 1   
    46    27    50 1   
    47    28    29 2   
    48    28    30 1   
    49    30    31 2   
    50    30    34 1   
    51    31    32 1   
    52    31    51 1   
    53    32    33 2   
    54    32    52 1   
    55    33    34 1   
@<TRIPOS>SUBSTRUCTURE
     1 IFC         1 TEMP              0 ****  ****    0 ROOT
