@<TRIPOS>MOLECULE
IFC
   52    55     1     0     0
SMALL
abcg2


@<TRIPOS>ATOM
      1 C1A         -7.9590     2.9610     2.0100 c3         1 IFC      -0.111400
      2 C1Y         -7.2040     1.9130     1.2710 cc         1 IFC       0.259300
      3 C1Q         -5.8540     1.7660     1.1580 cd         1 IFC      -0.220000
      4 N1S         -7.8360     0.9090     0.5790 nc         1 IFC      -0.664000
      5 C1L         -6.8930     0.1720     0.0680 cd         1 IFC       0.411400
      6 N2G         -5.6590     0.6410     0.3880 na         1 IFC      -0.086300
      7 C2C         -4.4280     0.1010    -0.0150 ca         1 IFC       0.004800
      8 C1M         -3.3630     0.9430    -0.2950 ca         1 IFC      -0.047000
      9 C1P         -4.2810    -1.2760    -0.1270 ca         1 IFC      -0.060000
     10 C2D         -3.0660    -1.7990    -0.5370 ca         1 IFC      -0.186300
     11 C2H         -2.9130    -3.2770    -0.7330 c3         1 IFC       0.360300
     12 F1F         -3.0990    -3.6180    -2.0150 f          1 IFC      -0.107667
     13 F1G         -1.6910    -3.7010    -0.3930 f          1 IFC      -0.107667
     14 F1E         -3.7900    -3.9780    -0.0110 f          1 IFC      -0.107667
     15 C1O         -1.9880    -0.9650    -0.8020 ca         1 IFC      -0.049000
     16 C2B         -2.1340     0.4100    -0.6620 ca         1 IFC      -0.142600
     17 C1W         -1.0220     1.3720    -0.9510 c          1 IFC       0.620700
     18 O1C         -1.2600     2.4890    -1.3710 o          1 IFC      -0.567100
     19 N1T          0.2180     0.8960    -0.6890 ns         1 IFC      -0.137000
     20 C2A          1.4520     1.5390    -0.8480 ca         1 IFC      -0.012000
     21 C1N          2.5490     0.9220    -0.2490 ca         1 IFC      -0.161000
     22 C1K          1.6420     2.7220    -1.5580 ca         1 IFC      -0.131000
     23 C1J          2.9170     3.2590    -1.6460 ca         1 IFC      -0.071000
     24 C1Z          4.0280     2.6600    -1.0670 ca         1 IFC      -0.119300
     25 C1B          5.3960     3.2590    -1.2020 c3         1 IFC      -0.045800
     26 C2E          3.8170     1.4690    -0.3630 ca         1 IFC      -0.012000
     27 N1U          4.9220     0.8560     0.2600 ns         1 IFC      -0.145000
     28 C1X          5.2040    -0.4640     0.2220 c          1 IFC       0.537600
     29 O1D          4.5340    -1.3110    -0.3360 o          1 IFC      -0.561100
     30 C2F          6.4450    -0.8650     0.9250 cc         1 IFC       0.098500
     31 C1I          7.0180    -2.0850     1.0540 cd         1 IFC      -0.165000
     32 C1H          8.1710    -1.8130     1.8250 cd         1 IFC       0.249900
     33 N1R          8.2640    -0.5490     2.1200 nc         1 IFC      -0.338300
     34 O1V          7.1840     0.0490     1.5590 os         1 IFC      -0.079700
     35 H1A         -8.5690     3.5610     1.3330 hc         1 IFC       0.046367
     36 H1AA        -8.6320     2.5180     2.7460 hc         1 IFC       0.046367
     37 H1AB        -7.2820     3.6330     2.5340 hc         1 IFC       0.046367
     38 H1Q         -5.0360     2.3330     1.5710 h4         1 IFC       0.162000
     39 H1L         -7.0360    -0.6960    -0.5580 h5         1 IFC       0.059100
     40 H1M         -3.4860     2.0160    -0.2280 ha         1 IFC       0.155000
     41 H1P         -5.1110    -1.9250     0.1180 ha         1 IFC       0.146000
     42 H1O         -1.0500    -1.3850    -1.1390 ha         1 IFC       0.139000
     43 HN1T         0.2700     0.0070    -0.2170 hn         1 IFC       0.159000
     44 H1N          2.4010     0.0180     0.3280 ha         1 IFC       0.129000
     45 H1K          0.8230     3.2280    -2.0410 ha         1 IFC       0.150000
     46 H1J          3.0510     4.1770    -2.2040 ha         1 IFC       0.119000
     47 H1B          5.8070     3.5740    -0.2400 hc         1 IFC       0.045033
     48 H1BA         6.1040     2.5540    -1.6410 hc         1 IFC       0.045033
     49 H1BB         5.3680     4.1410    -1.8400 hc         1 IFC       0.045033
     50 HN1U         5.5880     1.4740     0.7010 hn         1 IFC       0.176000
     51 H1I          6.6810    -3.0300     0.6650 ha         1 IFC       0.172000
     52 H1H          8.9290    -2.5000     2.1680 h4         1 IFC       0.053100
@<TRIPOS>BOND
     1     1     2 1   
     2     1    35 1   
     3     1    36 1   
     4     1    37 1   
     5     2     3 2   
     6     2     4 1   
     7     3     6 1   
     8     3    38 1   
     9     4     5 2   
    10     5     6 1   
    11     5    39 1   
    12     6     7 1   
    13     7     8 ar  
    14     7     9 ar  
    15     8    16 ar  
    16     8    40 1   
    17     9    10 ar  
    18     9    41 1   
    19    10    11 1   
    20    10    15 ar  
    21    11    12 1   
    22    11    13 1   
    23    11    14 1   
    24    15    16 ar  
    25    15    42 1   
    26    16    17 1   
    27    17    18 2   
    28    17    19 1   
    29    19    20 1   
    30    19    43 1   
    31    20    21 ar  
    32    20    22 ar  
    33    21    26 ar  
    34    21    44 1   
    35    22    23 ar  
    36    22    45 1   
    37    23    24 ar  
    38    23    46 1   
    39    24    25 1   
    40    24    26 ar  
    41    25    47 1   
    42    25    48 1   
    43    25    49 1   
    44    26    27 1   
    45    27    28 1   
    46    27    50 1   
    47    28    29 2   
    48    28    30 1   
    49    30    31 2   
    50    30    34 1   
    51    31    32 1   
    52    31    51 1   
    53    32    33 2   
    54    32    52 1   
    55    33    34 1   
@<TRIPOS>SUBSTRUCTURE
     1 IFC         1 TEMP              0 ****  ****    0 ROOT
