@<TRIPOS>MOLECULE
IFE
   39    42     1     0     0
SMALL
No Charge or Current Charge


@<TRIPOS>ATOM
      1 C02         94.2160   -13.2130     8.4910 cc         1 IFE       0.813900
      2 N03         95.5150   -13.0080     8.5030 nd         1 IFE      -0.617800
      3 C05         94.3250   -11.7200     9.9380 cd         1 IFE       0.494300
      4 C06         93.9610   -10.8500    11.0550 cf         1 IFE      -0.243800
      5 C07         92.8290   -10.9080    11.8270 ce         1 IFE      -0.192600
      6 N09         93.5750   -14.1780     7.7470 nh         1 IFE      -0.802300
      7 C10         94.3250   -14.7380     6.5880 c5         1 IFE       0.244800
      8 C11         93.2610   -14.6610     5.4580 c5         1 IFE      -0.096400
      9 C13         92.1380   -13.9430     7.4450 c5         1 IFE       0.244800
     10 C17         92.6070    -8.5850    14.3940 cc         1 IFE      -0.060000
     11 C19         90.5450    -8.9380    15.5430 cc         1 IFE      -0.063000
     12 C20         90.8960    -7.8800    16.3800 cd         1 IFE       0.060000
     13 C21         92.1240    -7.1440    16.2400 cd         1 IFE      -0.075000
     14 C22         92.9820    -7.5050    15.2360 cc         1 IFE      -0.084000
     15 N01         93.4510   -12.5120     9.3590 nc         1 IFE      -0.751000
     16 N04         95.5940   -12.0300     9.4590 na         1 IFE      -0.049700
     17 C08         96.8800   -11.4510     9.8810 c3         1 IFE       0.078900
     18 C12         91.9420   -14.8960     6.2410 c5         1 IFE      -0.096400
     19 C14         92.4640   -10.0690    12.9620 cc         1 IFE       0.571600
     20 N15         91.3120   -10.2610    13.6110 nd         1 IFE      -0.578100
     21 N16         93.3390    -9.0640    13.3600 nc         1 IFE      -0.394300
     22 N18         91.4460    -9.2830    14.5240 na         1 IFE       0.299400
     23 H24         94.7210   -10.1100    11.3040 ha         1 IFE       0.199000
     24 H25         92.0780   -11.6630    11.5960 ha         1 IFE       0.218000
     25 H29         95.2280   -14.1780     6.3080 h1         1 IFE       0.048450
     26 H30         94.6190   -15.7790     6.7860 h1         1 IFE       0.048450
     27 H32         93.2670   -13.6740     4.9790 hc         1 IFE       0.051450
     28 H31         93.4320   -15.4070     4.6740 hc         1 IFE       0.051450
     29 H35         91.4790   -14.2040     8.2850 h1         1 IFE       0.048450
     30 H36         91.9450   -12.8990     7.1570 h1         1 IFE       0.048450
     31 H37         89.6360    -9.5160    15.6120 h4         1 IFE       0.178000
     32 H38         92.3650    -6.3250    16.9100 ha         1 IFE       0.142000
     33 H39         93.9250    -6.9900    15.0770 ha         1 IFE       0.153000
     34 H28         97.7070   -11.9370     9.3470 h1         1 IFE       0.056367
     35 H27         96.8900   -10.3770     9.6580 h1         1 IFE       0.056367
     36 H26         97.0130   -11.5990    10.9600 h1         1 IFE       0.056367
     37 H34         91.0490   -14.6510     5.6550 hc         1 IFE       0.051450
     38 H33         91.8480   -15.9390     6.5670 hc         1 IFE       0.051450
     39 Cl23        89.8360    -7.3930    17.6630 cl         1 IFE      -0.161000
@<TRIPOS>BOND
     1     1     2 2   
     2     1     6 1   
     3     1    15 1   
     4     2    16 1   
     5     3     4 1   
     6     3    15 2   
     7     3    16 1   
     8     4     5 2   
     9     4    23 1   
    10     5    19 1   
    11     5    24 1   
    12     6     7 1   
    13     6     9 1   
    14     7     8 1   
    15     7    25 1   
    16     7    26 1   
    17     8    18 1   
    18     8    27 1   
    19     8    28 1   
    20     9    18 1   
    21     9    29 1   
    22     9    30 1   
    23    10    14 1   
    24    10    21 2   
    25    10    22 1   
    26    11    12 2   
    27    11    22 1   
    28    11    31 1   
    29    12    13 1   
    30    12    39 1   
    31    13    14 2   
    32    13    32 1   
    33    14    33 1   
    34    16    17 1   
    35    17    34 1   
    36    17    35 1   
    37    17    36 1   
    38    18    37 1   
    39    18    38 1   
    40    19    20 2   
    41    19    21 1   
    42    20    22 1   
@<TRIPOS>SUBSTRUCTURE
     1 IFE         1 TEMP              0 ****  ****    0 ROOT
