@<TRIPOS>MOLECULE
IFE
   39    42     1     0     0
SMALL
bcc


@<TRIPOS>ATOM
      1 C02         94.1040   -13.0360     8.4230 cc         1 IFE       0.813900
      2 N03         95.4080   -12.7980     8.4780 nd         1 IFE      -0.617800
      3 C05         94.3060   -11.7440    10.0620 cd         1 IFE       0.494300
      4 C06         94.0510   -10.9080    11.2140 cf         1 IFE      -0.193800
      5 C07         92.8260   -10.7690    11.7320 ce         1 IFE      -0.142600
      6 N09         93.5450   -13.8380     7.4970 nh         1 IFE      -0.802300
      7 C10         94.3000   -14.4330     6.4110 c5         1 IFE       0.244800
      8 C11         93.2100   -14.8900     5.4440 c5         1 IFE      -0.096400
      9 C13         92.1170   -14.0720     7.4100 c5         1 IFE       0.244800
     10 C17         92.7830    -8.6320    14.5030 cc         1 IFE      -0.009300
     11 C19         90.4960    -8.6340    15.2600 cc         1 IFE      -0.030300
     12 C20         90.8440    -7.7750    16.2550 cd         1 IFE      -0.031600
     13 C21         92.1750    -7.3190    16.3980 cd         1 IFE      -0.093000
     14 C22         93.1400    -7.7410    15.5310 cc         1 IFE      -0.102000
     15 N01         93.3870   -12.4080     9.3770 nc         1 IFE      -0.751000
     16 N04         95.5130   -11.9660     9.5300 na         1 IFE      -0.020400
     17 C08         96.8190   -11.4990     9.9230 c3         1 IFE       0.049600
     18 C12         92.0200   -15.1710     6.3580 c5         1 IFE      -0.096400
     19 C14         92.5490    -9.9410    12.8870 cc         1 IFE       0.571600
     20 N15         91.3210    -9.8670    13.3840 nd         1 IFE      -0.578100
     21 N16         93.4720    -9.2070    13.5340 nc         1 IFE      -0.394300
     22 N18         91.4740    -9.0350    14.4130 na         1 IFE       0.198000
     23 H24         94.8840   -10.3860    11.6680 ha         1 IFE       0.149000
     24 H25         91.9790   -11.2870    11.2980 ha         1 IFE       0.168000
     25 H29         94.9840   -13.7130     5.9560 h1         1 IFE       0.048450
     26 H30         94.9030   -15.2780     6.7630 h1         1 IFE       0.048450
     27 H32         92.9680   -14.0870     4.7450 hc         1 IFE       0.051450
     28 H31         93.5160   -15.7570     4.8590 hc         1 IFE       0.051450
     29 H35         91.7010   -14.3780     8.3720 h1         1 IFE       0.048450
     30 H36         91.5800   -13.1700     7.0940 h1         1 IFE       0.048450
     31 H37         89.5020    -9.0210    15.0920 h4         1 IFE       0.196000
     32 H38         92.4210    -6.6340    17.1980 ha         1 IFE       0.160000
     33 H39         94.1650    -7.4080    15.6170 ha         1 IFE       0.171000
     34 H28         97.3100   -11.0290     9.0740 h1         1 IFE       0.056367
     35 H27         96.7320   -10.7700    10.7220 h1         1 IFE       0.056367
     36 H26         97.4280   -12.3310    10.2720 h1         1 IFE       0.056367
     37 H34         91.0640   -15.1590     5.8360 hc         1 IFE       0.051450
     38 H33         92.1290   -16.1510     6.8300 hc         1 IFE       0.051450
     39 CL23        89.6390    -7.2370    17.3610 cl         1 IFE      -0.069400
@<TRIPOS>BOND
     1     1     2 2   
     2     1     6 1   
     3     1    15 1   
     4     2    16 1   
     5     3     4 1   
     6     3    15 2   
     7     3    16 1   
     8     4     5 2   
     9     4    23 1   
    10     5    19 1   
    11     5    24 1   
    12     6     7 1   
    13     6     9 1   
    14     7     8 1   
    15     7    25 1   
    16     7    26 1   
    17     8    18 1   
    18     8    27 1   
    19     8    28 1   
    20     9    18 1   
    21     9    29 1   
    22     9    30 1   
    23    10    14 1   
    24    10    21 2   
    25    10    22 1   
    26    11    12 2   
    27    11    22 1   
    28    11    31 1   
    29    12    13 1   
    30    12    39 1   
    31    13    14 2   
    32    13    32 1   
    33    14    33 1   
    34    16    17 1   
    35    17    34 1   
    36    17    35 1   
    37    17    36 1   
    38    18    37 1   
    39    18    38 1   
    40    19    20 2   
    41    19    21 1   
    42    20    22 1   
@<TRIPOS>SUBSTRUCTURE
     1 IFE         1 TEMP              0 ****  ****    0 ROOT
